
---------- Begin Simulation Statistics ----------
sim_seconds                                  0.130569                       # Number of seconds simulated
sim_ticks                                130568795340                       # Number of ticks simulated
final_tick                               179978708250                       # Number of ticks from beginning of simulation (restored from checkpoints and never reset)
sim_freq                                 1000000000000                       # Frequency of simulated ticks
host_inst_rate                                 135645                       # Simulator instruction rate (inst/s)
host_op_rate                                   207421                       # Simulator op (including micro ops) rate (op/s)
host_tick_rate                                7379161                       # Simulator tick rate (ticks/s)
host_mem_usage                               17151268                       # Number of bytes of host memory used
host_seconds                                 17694.26                       # Real time elapsed on the host
sim_insts                                  2400132812                       # Number of instructions simulated
sim_ops                                    3670154684                       # Number of ops (including micro ops) simulated
system.voltage_domain.voltage                       1                       # Voltage in Volts
system.clk_domain.clock                          1000                       # Clock period in ticks
system.mem_ctrls0.pwrStateResidencyTicks::UNDEFINED 179978708250                       # Cumulative time (in ticks) in various power states
system.mem_ctrls0.bytes_read::.switch_cpus_10.inst        17408                       # Number of bytes read from this memory
system.mem_ctrls0.bytes_read::.switch_cpus_10.data       257792                       # Number of bytes read from this memory
system.mem_ctrls0.bytes_read::.switch_cpus_11.inst        15744                       # Number of bytes read from this memory
system.mem_ctrls0.bytes_read::.switch_cpus_11.data       250560                       # Number of bytes read from this memory
system.mem_ctrls0.bytes_read::.switch_cpus_12.inst        17344                       # Number of bytes read from this memory
system.mem_ctrls0.bytes_read::.switch_cpus_12.data       243840                       # Number of bytes read from this memory
system.mem_ctrls0.bytes_read::.switch_cpus_13.inst        18112                       # Number of bytes read from this memory
system.mem_ctrls0.bytes_read::.switch_cpus_13.data       253696                       # Number of bytes read from this memory
system.mem_ctrls0.bytes_read::total           1074496                       # Number of bytes read from this memory
system.mem_ctrls0.bytes_inst_read::.switch_cpus_10.inst        17408                       # Number of instructions bytes read from this memory
system.mem_ctrls0.bytes_inst_read::.switch_cpus_11.inst        15744                       # Number of instructions bytes read from this memory
system.mem_ctrls0.bytes_inst_read::.switch_cpus_12.inst        17344                       # Number of instructions bytes read from this memory
system.mem_ctrls0.bytes_inst_read::.switch_cpus_13.inst        18112                       # Number of instructions bytes read from this memory
system.mem_ctrls0.bytes_inst_read::total        68608                       # Number of instructions bytes read from this memory
system.mem_ctrls0.bytes_written::.writebacks      1050304                       # Number of bytes written to this memory
system.mem_ctrls0.bytes_written::total        1050304                       # Number of bytes written to this memory
system.mem_ctrls0.num_reads::.switch_cpus_10.inst          272                       # Number of read requests responded to by this memory
system.mem_ctrls0.num_reads::.switch_cpus_10.data         4028                       # Number of read requests responded to by this memory
system.mem_ctrls0.num_reads::.switch_cpus_11.inst          246                       # Number of read requests responded to by this memory
system.mem_ctrls0.num_reads::.switch_cpus_11.data         3915                       # Number of read requests responded to by this memory
system.mem_ctrls0.num_reads::.switch_cpus_12.inst          271                       # Number of read requests responded to by this memory
system.mem_ctrls0.num_reads::.switch_cpus_12.data         3810                       # Number of read requests responded to by this memory
system.mem_ctrls0.num_reads::.switch_cpus_13.inst          283                       # Number of read requests responded to by this memory
system.mem_ctrls0.num_reads::.switch_cpus_13.data         3964                       # Number of read requests responded to by this memory
system.mem_ctrls0.num_reads::total              16789                       # Number of read requests responded to by this memory
system.mem_ctrls0.num_writes::.writebacks        16411                       # Number of write requests responded to by this memory
system.mem_ctrls0.num_writes::total             16411                       # Number of write requests responded to by this memory
system.mem_ctrls0.bw_read::.switch_cpus_10.inst       133324                       # Total read bandwidth from this memory (bytes/s)
system.mem_ctrls0.bw_read::.switch_cpus_10.data      1974377                       # Total read bandwidth from this memory (bytes/s)
system.mem_ctrls0.bw_read::.switch_cpus_11.inst       120580                       # Total read bandwidth from this memory (bytes/s)
system.mem_ctrls0.bw_read::.switch_cpus_11.data      1918988                       # Total read bandwidth from this memory (bytes/s)
system.mem_ctrls0.bw_read::.switch_cpus_12.inst       132834                       # Total read bandwidth from this memory (bytes/s)
system.mem_ctrls0.bw_read::.switch_cpus_12.data      1867521                       # Total read bandwidth from this memory (bytes/s)
system.mem_ctrls0.bw_read::.switch_cpus_13.inst       138716                       # Total read bandwidth from this memory (bytes/s)
system.mem_ctrls0.bw_read::.switch_cpus_13.data      1943006                       # Total read bandwidth from this memory (bytes/s)
system.mem_ctrls0.bw_read::total              8229348                       # Total read bandwidth from this memory (bytes/s)
system.mem_ctrls0.bw_inst_read::.switch_cpus_10.inst       133324                       # Instruction read bandwidth from this memory (bytes/s)
system.mem_ctrls0.bw_inst_read::.switch_cpus_11.inst       120580                       # Instruction read bandwidth from this memory (bytes/s)
system.mem_ctrls0.bw_inst_read::.switch_cpus_12.inst       132834                       # Instruction read bandwidth from this memory (bytes/s)
system.mem_ctrls0.bw_inst_read::.switch_cpus_13.inst       138716                       # Instruction read bandwidth from this memory (bytes/s)
system.mem_ctrls0.bw_inst_read::total          525455                       # Instruction read bandwidth from this memory (bytes/s)
system.mem_ctrls0.bw_write::.writebacks       8044066                       # Write bandwidth from this memory (bytes/s)
system.mem_ctrls0.bw_write::total             8044066                       # Write bandwidth from this memory (bytes/s)
system.mem_ctrls0.bw_total::.writebacks       8044066                       # Total bandwidth to/from this memory (bytes/s)
system.mem_ctrls0.bw_total::.switch_cpus_10.inst       133324                       # Total bandwidth to/from this memory (bytes/s)
system.mem_ctrls0.bw_total::.switch_cpus_10.data      1974377                       # Total bandwidth to/from this memory (bytes/s)
system.mem_ctrls0.bw_total::.switch_cpus_11.inst       120580                       # Total bandwidth to/from this memory (bytes/s)
system.mem_ctrls0.bw_total::.switch_cpus_11.data      1918988                       # Total bandwidth to/from this memory (bytes/s)
system.mem_ctrls0.bw_total::.switch_cpus_12.inst       132834                       # Total bandwidth to/from this memory (bytes/s)
system.mem_ctrls0.bw_total::.switch_cpus_12.data      1867521                       # Total bandwidth to/from this memory (bytes/s)
system.mem_ctrls0.bw_total::.switch_cpus_13.inst       138716                       # Total bandwidth to/from this memory (bytes/s)
system.mem_ctrls0.bw_total::.switch_cpus_13.data      1943006                       # Total bandwidth to/from this memory (bytes/s)
system.mem_ctrls0.bw_total::total            16273414                       # Total bandwidth to/from this memory (bytes/s)
system.mem_ctrls0.avgPriority_.writebacks::samples     16411.00                       # Average QoS priority value for accepted requests
system.mem_ctrls0.avgPriority_.switch_cpus_10.inst::samples       272.00                       # Average QoS priority value for accepted requests
system.mem_ctrls0.avgPriority_.switch_cpus_10.data::samples      3994.00                       # Average QoS priority value for accepted requests
system.mem_ctrls0.avgPriority_.switch_cpus_11.inst::samples       246.00                       # Average QoS priority value for accepted requests
system.mem_ctrls0.avgPriority_.switch_cpus_11.data::samples      3873.00                       # Average QoS priority value for accepted requests
system.mem_ctrls0.avgPriority_.switch_cpus_12.inst::samples       271.00                       # Average QoS priority value for accepted requests
system.mem_ctrls0.avgPriority_.switch_cpus_12.data::samples      3776.00                       # Average QoS priority value for accepted requests
system.mem_ctrls0.avgPriority_.switch_cpus_13.inst::samples       283.00                       # Average QoS priority value for accepted requests
system.mem_ctrls0.avgPriority_.switch_cpus_13.data::samples      3922.00                       # Average QoS priority value for accepted requests
system.mem_ctrls0.priorityMinLatency     0.000000017860                       # per QoS priority minimum request to response latency (s)
system.mem_ctrls0.priorityMaxLatency     0.031692303660                       # per QoS priority maximum request to response latency (s)
system.mem_ctrls0.numReadWriteTurnArounds          949                       # Number of turnarounds from READ to WRITE
system.mem_ctrls0.numWriteReadTurnArounds          949                       # Number of turnarounds from WRITE to READ
system.mem_ctrls0.numStayReadState              48706                       # Number of times bus staying in READ state
system.mem_ctrls0.numStayWriteState             15433                       # Number of times bus staying in WRITE state
system.mem_ctrls0.readReqs                      16789                       # Number of read requests accepted
system.mem_ctrls0.writeReqs                     16411                       # Number of write requests accepted
system.mem_ctrls0.readBursts                    16789                       # Number of DRAM read bursts, including those serviced by the write queue
system.mem_ctrls0.writeBursts                   16411                       # Number of DRAM write bursts, including those merged in the write queue
system.mem_ctrls0.bytesReadDRAM               1064768                       # Total number of bytes read from DRAM
system.mem_ctrls0.bytesReadWrQ                   9728                       # Total number of bytes read from write queue
system.mem_ctrls0.bytesWritten                1046272                       # Total number of bytes written to DRAM
system.mem_ctrls0.bytesReadSys                1074496                       # Total read bytes from the system interface side
system.mem_ctrls0.bytesWrittenSys             1050304                       # Total written bytes from the system interface side
system.mem_ctrls0.servicedByWrQ                   152                       # Number of DRAM read bursts serviced by the write queue
system.mem_ctrls0.mergedWrBursts                    0                       # Number of DRAM write bursts merged with an existing one
system.mem_ctrls0.neitherReadNorWriteReqs            0                       # Number of requests that are neither read nor write
system.mem_ctrls0.perBankRdBursts::0              380                       # Per bank write bursts
system.mem_ctrls0.perBankRdBursts::1              323                       # Per bank write bursts
system.mem_ctrls0.perBankRdBursts::2              339                       # Per bank write bursts
system.mem_ctrls0.perBankRdBursts::3              321                       # Per bank write bursts
system.mem_ctrls0.perBankRdBursts::4              461                       # Per bank write bursts
system.mem_ctrls0.perBankRdBursts::5              665                       # Per bank write bursts
system.mem_ctrls0.perBankRdBursts::6              538                       # Per bank write bursts
system.mem_ctrls0.perBankRdBursts::7              321                       # Per bank write bursts
system.mem_ctrls0.perBankRdBursts::8              295                       # Per bank write bursts
system.mem_ctrls0.perBankRdBursts::9              304                       # Per bank write bursts
system.mem_ctrls0.perBankRdBursts::10             539                       # Per bank write bursts
system.mem_ctrls0.perBankRdBursts::11             685                       # Per bank write bursts
system.mem_ctrls0.perBankRdBursts::12             398                       # Per bank write bursts
system.mem_ctrls0.perBankRdBursts::13             441                       # Per bank write bursts
system.mem_ctrls0.perBankRdBursts::14             571                       # Per bank write bursts
system.mem_ctrls0.perBankRdBursts::15             420                       # Per bank write bursts
system.mem_ctrls0.perBankRdBursts::16             423                       # Per bank write bursts
system.mem_ctrls0.perBankRdBursts::17             671                       # Per bank write bursts
system.mem_ctrls0.perBankRdBursts::18             723                       # Per bank write bursts
system.mem_ctrls0.perBankRdBursts::19             569                       # Per bank write bursts
system.mem_ctrls0.perBankRdBursts::20             454                       # Per bank write bursts
system.mem_ctrls0.perBankRdBursts::21             531                       # Per bank write bursts
system.mem_ctrls0.perBankRdBursts::22             618                       # Per bank write bursts
system.mem_ctrls0.perBankRdBursts::23             757                       # Per bank write bursts
system.mem_ctrls0.perBankRdBursts::24             826                       # Per bank write bursts
system.mem_ctrls0.perBankRdBursts::25             605                       # Per bank write bursts
system.mem_ctrls0.perBankRdBursts::26             447                       # Per bank write bursts
system.mem_ctrls0.perBankRdBursts::27             457                       # Per bank write bursts
system.mem_ctrls0.perBankRdBursts::28             500                       # Per bank write bursts
system.mem_ctrls0.perBankRdBursts::29             745                       # Per bank write bursts
system.mem_ctrls0.perBankRdBursts::30             736                       # Per bank write bursts
system.mem_ctrls0.perBankRdBursts::31             574                       # Per bank write bursts
system.mem_ctrls0.perBankWrBursts::0              373                       # Per bank write bursts
system.mem_ctrls0.perBankWrBursts::1              315                       # Per bank write bursts
system.mem_ctrls0.perBankWrBursts::2              320                       # Per bank write bursts
system.mem_ctrls0.perBankWrBursts::3              321                       # Per bank write bursts
system.mem_ctrls0.perBankWrBursts::4              457                       # Per bank write bursts
system.mem_ctrls0.perBankWrBursts::5              703                       # Per bank write bursts
system.mem_ctrls0.perBankWrBursts::6              539                       # Per bank write bursts
system.mem_ctrls0.perBankWrBursts::7              325                       # Per bank write bursts
system.mem_ctrls0.perBankWrBursts::8              302                       # Per bank write bursts
system.mem_ctrls0.perBankWrBursts::9              290                       # Per bank write bursts
system.mem_ctrls0.perBankWrBursts::10             483                       # Per bank write bursts
system.mem_ctrls0.perBankWrBursts::11             613                       # Per bank write bursts
system.mem_ctrls0.perBankWrBursts::12             375                       # Per bank write bursts
system.mem_ctrls0.perBankWrBursts::13             492                       # Per bank write bursts
system.mem_ctrls0.perBankWrBursts::14             592                       # Per bank write bursts
system.mem_ctrls0.perBankWrBursts::15             441                       # Per bank write bursts
system.mem_ctrls0.perBankWrBursts::16             435                       # Per bank write bursts
system.mem_ctrls0.perBankWrBursts::17             584                       # Per bank write bursts
system.mem_ctrls0.perBankWrBursts::18             704                       # Per bank write bursts
system.mem_ctrls0.perBankWrBursts::19             547                       # Per bank write bursts
system.mem_ctrls0.perBankWrBursts::20             473                       # Per bank write bursts
system.mem_ctrls0.perBankWrBursts::21             539                       # Per bank write bursts
system.mem_ctrls0.perBankWrBursts::22             616                       # Per bank write bursts
system.mem_ctrls0.perBankWrBursts::23             798                       # Per bank write bursts
system.mem_ctrls0.perBankWrBursts::24             763                       # Per bank write bursts
system.mem_ctrls0.perBankWrBursts::25             570                       # Per bank write bursts
system.mem_ctrls0.perBankWrBursts::26             445                       # Per bank write bursts
system.mem_ctrls0.perBankWrBursts::27             452                       # Per bank write bursts
system.mem_ctrls0.perBankWrBursts::28             484                       # Per bank write bursts
system.mem_ctrls0.perBankWrBursts::29             701                       # Per bank write bursts
system.mem_ctrls0.perBankWrBursts::30             718                       # Per bank write bursts
system.mem_ctrls0.perBankWrBursts::31             578                       # Per bank write bursts
system.mem_ctrls0.numRdRetry                        0                       # Number of times read queue was full causing retry
system.mem_ctrls0.numWrRetry                        0                       # Number of times write queue was full causing retry
system.mem_ctrls0.totGap                 130200636000                       # Total gap between requests
system.mem_ctrls0.readPktSize::0                    0                       # Read request sizes (log2)
system.mem_ctrls0.readPktSize::1                    0                       # Read request sizes (log2)
system.mem_ctrls0.readPktSize::2                    0                       # Read request sizes (log2)
system.mem_ctrls0.readPktSize::3                    0                       # Read request sizes (log2)
system.mem_ctrls0.readPktSize::4                    0                       # Read request sizes (log2)
system.mem_ctrls0.readPktSize::5                    0                       # Read request sizes (log2)
system.mem_ctrls0.readPktSize::6                16789                       # Read request sizes (log2)
system.mem_ctrls0.writePktSize::0                   0                       # Write request sizes (log2)
system.mem_ctrls0.writePktSize::1                   0                       # Write request sizes (log2)
system.mem_ctrls0.writePktSize::2                   0                       # Write request sizes (log2)
system.mem_ctrls0.writePktSize::3                   0                       # Write request sizes (log2)
system.mem_ctrls0.writePktSize::4                   0                       # Write request sizes (log2)
system.mem_ctrls0.writePktSize::5                   0                       # Write request sizes (log2)
system.mem_ctrls0.writePktSize::6               16411                       # Write request sizes (log2)
system.mem_ctrls0.rdQLenPdf::0                  11547                       # What read queue length does an incoming req see
system.mem_ctrls0.rdQLenPdf::1                   4029                       # What read queue length does an incoming req see
system.mem_ctrls0.rdQLenPdf::2                    887                       # What read queue length does an incoming req see
system.mem_ctrls0.rdQLenPdf::3                    134                       # What read queue length does an incoming req see
system.mem_ctrls0.rdQLenPdf::4                     21                       # What read queue length does an incoming req see
system.mem_ctrls0.rdQLenPdf::5                     11                       # What read queue length does an incoming req see
system.mem_ctrls0.rdQLenPdf::6                      4                       # What read queue length does an incoming req see
system.mem_ctrls0.rdQLenPdf::7                      2                       # What read queue length does an incoming req see
system.mem_ctrls0.rdQLenPdf::8                      1                       # What read queue length does an incoming req see
system.mem_ctrls0.rdQLenPdf::9                      1                       # What read queue length does an incoming req see
system.mem_ctrls0.rdQLenPdf::10                     0                       # What read queue length does an incoming req see
system.mem_ctrls0.rdQLenPdf::11                     0                       # What read queue length does an incoming req see
system.mem_ctrls0.rdQLenPdf::12                     0                       # What read queue length does an incoming req see
system.mem_ctrls0.rdQLenPdf::13                     0                       # What read queue length does an incoming req see
system.mem_ctrls0.rdQLenPdf::14                     0                       # What read queue length does an incoming req see
system.mem_ctrls0.rdQLenPdf::15                     0                       # What read queue length does an incoming req see
system.mem_ctrls0.rdQLenPdf::16                     0                       # What read queue length does an incoming req see
system.mem_ctrls0.rdQLenPdf::17                     0                       # What read queue length does an incoming req see
system.mem_ctrls0.rdQLenPdf::18                     0                       # What read queue length does an incoming req see
system.mem_ctrls0.rdQLenPdf::19                     0                       # What read queue length does an incoming req see
system.mem_ctrls0.rdQLenPdf::20                     0                       # What read queue length does an incoming req see
system.mem_ctrls0.rdQLenPdf::21                     0                       # What read queue length does an incoming req see
system.mem_ctrls0.rdQLenPdf::22                     0                       # What read queue length does an incoming req see
system.mem_ctrls0.rdQLenPdf::23                     0                       # What read queue length does an incoming req see
system.mem_ctrls0.rdQLenPdf::24                     0                       # What read queue length does an incoming req see
system.mem_ctrls0.rdQLenPdf::25                     0                       # What read queue length does an incoming req see
system.mem_ctrls0.rdQLenPdf::26                     0                       # What read queue length does an incoming req see
system.mem_ctrls0.rdQLenPdf::27                     0                       # What read queue length does an incoming req see
system.mem_ctrls0.rdQLenPdf::28                     0                       # What read queue length does an incoming req see
system.mem_ctrls0.rdQLenPdf::29                     0                       # What read queue length does an incoming req see
system.mem_ctrls0.rdQLenPdf::30                     0                       # What read queue length does an incoming req see
system.mem_ctrls0.rdQLenPdf::31                     0                       # What read queue length does an incoming req see
system.mem_ctrls0.rdQLenPdf::32                     0                       # What read queue length does an incoming req see
system.mem_ctrls0.rdQLenPdf::33                     0                       # What read queue length does an incoming req see
system.mem_ctrls0.rdQLenPdf::34                     0                       # What read queue length does an incoming req see
system.mem_ctrls0.rdQLenPdf::35                     0                       # What read queue length does an incoming req see
system.mem_ctrls0.rdQLenPdf::36                     0                       # What read queue length does an incoming req see
system.mem_ctrls0.rdQLenPdf::37                     0                       # What read queue length does an incoming req see
system.mem_ctrls0.rdQLenPdf::38                     0                       # What read queue length does an incoming req see
system.mem_ctrls0.rdQLenPdf::39                     0                       # What read queue length does an incoming req see
system.mem_ctrls0.rdQLenPdf::40                     0                       # What read queue length does an incoming req see
system.mem_ctrls0.rdQLenPdf::41                     0                       # What read queue length does an incoming req see
system.mem_ctrls0.rdQLenPdf::42                     0                       # What read queue length does an incoming req see
system.mem_ctrls0.rdQLenPdf::43                     0                       # What read queue length does an incoming req see
system.mem_ctrls0.rdQLenPdf::44                     0                       # What read queue length does an incoming req see
system.mem_ctrls0.rdQLenPdf::45                     0                       # What read queue length does an incoming req see
system.mem_ctrls0.rdQLenPdf::46                     0                       # What read queue length does an incoming req see
system.mem_ctrls0.rdQLenPdf::47                     0                       # What read queue length does an incoming req see
system.mem_ctrls0.rdQLenPdf::48                     0                       # What read queue length does an incoming req see
system.mem_ctrls0.rdQLenPdf::49                     0                       # What read queue length does an incoming req see
system.mem_ctrls0.rdQLenPdf::50                     0                       # What read queue length does an incoming req see
system.mem_ctrls0.rdQLenPdf::51                     0                       # What read queue length does an incoming req see
system.mem_ctrls0.rdQLenPdf::52                     0                       # What read queue length does an incoming req see
system.mem_ctrls0.rdQLenPdf::53                     0                       # What read queue length does an incoming req see
system.mem_ctrls0.rdQLenPdf::54                     0                       # What read queue length does an incoming req see
system.mem_ctrls0.rdQLenPdf::55                     0                       # What read queue length does an incoming req see
system.mem_ctrls0.rdQLenPdf::56                     0                       # What read queue length does an incoming req see
system.mem_ctrls0.rdQLenPdf::57                     0                       # What read queue length does an incoming req see
system.mem_ctrls0.rdQLenPdf::58                     0                       # What read queue length does an incoming req see
system.mem_ctrls0.rdQLenPdf::59                     0                       # What read queue length does an incoming req see
system.mem_ctrls0.rdQLenPdf::60                     0                       # What read queue length does an incoming req see
system.mem_ctrls0.rdQLenPdf::61                     0                       # What read queue length does an incoming req see
system.mem_ctrls0.rdQLenPdf::62                     0                       # What read queue length does an incoming req see
system.mem_ctrls0.rdQLenPdf::63                     0                       # What read queue length does an incoming req see
system.mem_ctrls0.wrQLenPdf::0                      1                       # What write queue length does an incoming req see
system.mem_ctrls0.wrQLenPdf::1                      1                       # What write queue length does an incoming req see
system.mem_ctrls0.wrQLenPdf::2                      1                       # What write queue length does an incoming req see
system.mem_ctrls0.wrQLenPdf::3                      1                       # What write queue length does an incoming req see
system.mem_ctrls0.wrQLenPdf::4                      1                       # What write queue length does an incoming req see
system.mem_ctrls0.wrQLenPdf::5                      1                       # What write queue length does an incoming req see
system.mem_ctrls0.wrQLenPdf::6                      1                       # What write queue length does an incoming req see
system.mem_ctrls0.wrQLenPdf::7                      1                       # What write queue length does an incoming req see
system.mem_ctrls0.wrQLenPdf::8                      1                       # What write queue length does an incoming req see
system.mem_ctrls0.wrQLenPdf::9                      1                       # What write queue length does an incoming req see
system.mem_ctrls0.wrQLenPdf::10                     1                       # What write queue length does an incoming req see
system.mem_ctrls0.wrQLenPdf::11                     1                       # What write queue length does an incoming req see
system.mem_ctrls0.wrQLenPdf::12                     1                       # What write queue length does an incoming req see
system.mem_ctrls0.wrQLenPdf::13                     1                       # What write queue length does an incoming req see
system.mem_ctrls0.wrQLenPdf::14                     1                       # What write queue length does an incoming req see
system.mem_ctrls0.wrQLenPdf::15                     1                       # What write queue length does an incoming req see
system.mem_ctrls0.wrQLenPdf::16                     1                       # What write queue length does an incoming req see
system.mem_ctrls0.wrQLenPdf::17                     1                       # What write queue length does an incoming req see
system.mem_ctrls0.wrQLenPdf::18                     1                       # What write queue length does an incoming req see
system.mem_ctrls0.wrQLenPdf::19                     1                       # What write queue length does an incoming req see
system.mem_ctrls0.wrQLenPdf::20                     1                       # What write queue length does an incoming req see
system.mem_ctrls0.wrQLenPdf::21                     1                       # What write queue length does an incoming req see
system.mem_ctrls0.wrQLenPdf::22                     1                       # What write queue length does an incoming req see
system.mem_ctrls0.wrQLenPdf::23                     1                       # What write queue length does an incoming req see
system.mem_ctrls0.wrQLenPdf::24                     1                       # What write queue length does an incoming req see
system.mem_ctrls0.wrQLenPdf::25                     1                       # What write queue length does an incoming req see
system.mem_ctrls0.wrQLenPdf::26                     1                       # What write queue length does an incoming req see
system.mem_ctrls0.wrQLenPdf::27                     1                       # What write queue length does an incoming req see
system.mem_ctrls0.wrQLenPdf::28                     1                       # What write queue length does an incoming req see
system.mem_ctrls0.wrQLenPdf::29                     1                       # What write queue length does an incoming req see
system.mem_ctrls0.wrQLenPdf::30                     1                       # What write queue length does an incoming req see
system.mem_ctrls0.wrQLenPdf::31                     1                       # What write queue length does an incoming req see
system.mem_ctrls0.wrQLenPdf::32                     1                       # What write queue length does an incoming req see
system.mem_ctrls0.wrQLenPdf::33                     1                       # What write queue length does an incoming req see
system.mem_ctrls0.wrQLenPdf::34                     1                       # What write queue length does an incoming req see
system.mem_ctrls0.wrQLenPdf::35                     1                       # What write queue length does an incoming req see
system.mem_ctrls0.wrQLenPdf::36                     1                       # What write queue length does an incoming req see
system.mem_ctrls0.wrQLenPdf::37                     1                       # What write queue length does an incoming req see
system.mem_ctrls0.wrQLenPdf::38                     1                       # What write queue length does an incoming req see
system.mem_ctrls0.wrQLenPdf::39                     1                       # What write queue length does an incoming req see
system.mem_ctrls0.wrQLenPdf::40                     1                       # What write queue length does an incoming req see
system.mem_ctrls0.wrQLenPdf::41                     1                       # What write queue length does an incoming req see
system.mem_ctrls0.wrQLenPdf::42                     1                       # What write queue length does an incoming req see
system.mem_ctrls0.wrQLenPdf::43                     1                       # What write queue length does an incoming req see
system.mem_ctrls0.wrQLenPdf::44                     1                       # What write queue length does an incoming req see
system.mem_ctrls0.wrQLenPdf::45                     1                       # What write queue length does an incoming req see
system.mem_ctrls0.wrQLenPdf::46                     1                       # What write queue length does an incoming req see
system.mem_ctrls0.wrQLenPdf::47                   467                       # What write queue length does an incoming req see
system.mem_ctrls0.wrQLenPdf::48                   494                       # What write queue length does an incoming req see
system.mem_ctrls0.wrQLenPdf::49                   757                       # What write queue length does an incoming req see
system.mem_ctrls0.wrQLenPdf::50                   923                       # What write queue length does an incoming req see
system.mem_ctrls0.wrQLenPdf::51                   972                       # What write queue length does an incoming req see
system.mem_ctrls0.wrQLenPdf::52                   965                       # What write queue length does an incoming req see
system.mem_ctrls0.wrQLenPdf::53                   975                       # What write queue length does an incoming req see
system.mem_ctrls0.wrQLenPdf::54                   973                       # What write queue length does an incoming req see
system.mem_ctrls0.wrQLenPdf::55                   970                       # What write queue length does an incoming req see
system.mem_ctrls0.wrQLenPdf::56                   991                       # What write queue length does an incoming req see
system.mem_ctrls0.wrQLenPdf::57                   976                       # What write queue length does an incoming req see
system.mem_ctrls0.wrQLenPdf::58                   972                       # What write queue length does an incoming req see
system.mem_ctrls0.wrQLenPdf::59                   981                       # What write queue length does an incoming req see
system.mem_ctrls0.wrQLenPdf::60                   980                       # What write queue length does an incoming req see
system.mem_ctrls0.wrQLenPdf::61                   995                       # What write queue length does an incoming req see
system.mem_ctrls0.wrQLenPdf::62                   987                       # What write queue length does an incoming req see
system.mem_ctrls0.wrQLenPdf::63                   978                       # What write queue length does an incoming req see
system.mem_ctrls0.wrQLenPdf::64                   995                       # What write queue length does an incoming req see
system.mem_ctrls0.wrQLenPdf::65                    11                       # What write queue length does an incoming req see
system.mem_ctrls0.wrQLenPdf::66                     2                       # What write queue length does an incoming req see
system.mem_ctrls0.wrQLenPdf::67                     0                       # What write queue length does an incoming req see
system.mem_ctrls0.wrQLenPdf::68                     0                       # What write queue length does an incoming req see
system.mem_ctrls0.wrQLenPdf::69                     0                       # What write queue length does an incoming req see
system.mem_ctrls0.wrQLenPdf::70                     0                       # What write queue length does an incoming req see
system.mem_ctrls0.wrQLenPdf::71                     0                       # What write queue length does an incoming req see
system.mem_ctrls0.wrQLenPdf::72                     0                       # What write queue length does an incoming req see
system.mem_ctrls0.wrQLenPdf::73                     0                       # What write queue length does an incoming req see
system.mem_ctrls0.wrQLenPdf::74                     0                       # What write queue length does an incoming req see
system.mem_ctrls0.wrQLenPdf::75                     0                       # What write queue length does an incoming req see
system.mem_ctrls0.wrQLenPdf::76                     0                       # What write queue length does an incoming req see
system.mem_ctrls0.wrQLenPdf::77                     0                       # What write queue length does an incoming req see
system.mem_ctrls0.wrQLenPdf::78                     0                       # What write queue length does an incoming req see
system.mem_ctrls0.wrQLenPdf::79                     0                       # What write queue length does an incoming req see
system.mem_ctrls0.wrQLenPdf::80                     0                       # What write queue length does an incoming req see
system.mem_ctrls0.wrQLenPdf::81                     0                       # What write queue length does an incoming req see
system.mem_ctrls0.wrQLenPdf::82                     0                       # What write queue length does an incoming req see
system.mem_ctrls0.wrQLenPdf::83                     0                       # What write queue length does an incoming req see
system.mem_ctrls0.wrQLenPdf::84                     0                       # What write queue length does an incoming req see
system.mem_ctrls0.wrQLenPdf::85                     0                       # What write queue length does an incoming req see
system.mem_ctrls0.wrQLenPdf::86                     0                       # What write queue length does an incoming req see
system.mem_ctrls0.wrQLenPdf::87                     0                       # What write queue length does an incoming req see
system.mem_ctrls0.wrQLenPdf::88                     0                       # What write queue length does an incoming req see
system.mem_ctrls0.wrQLenPdf::89                     0                       # What write queue length does an incoming req see
system.mem_ctrls0.wrQLenPdf::90                     0                       # What write queue length does an incoming req see
system.mem_ctrls0.wrQLenPdf::91                     0                       # What write queue length does an incoming req see
system.mem_ctrls0.wrQLenPdf::92                     0                       # What write queue length does an incoming req see
system.mem_ctrls0.wrQLenPdf::93                     0                       # What write queue length does an incoming req see
system.mem_ctrls0.wrQLenPdf::94                     0                       # What write queue length does an incoming req see
system.mem_ctrls0.wrQLenPdf::95                     0                       # What write queue length does an incoming req see
system.mem_ctrls0.wrQLenPdf::96                     0                       # What write queue length does an incoming req see
system.mem_ctrls0.wrQLenPdf::97                     0                       # What write queue length does an incoming req see
system.mem_ctrls0.wrQLenPdf::98                     0                       # What write queue length does an incoming req see
system.mem_ctrls0.wrQLenPdf::99                     0                       # What write queue length does an incoming req see
system.mem_ctrls0.wrQLenPdf::100                    0                       # What write queue length does an incoming req see
system.mem_ctrls0.wrQLenPdf::101                    0                       # What write queue length does an incoming req see
system.mem_ctrls0.wrQLenPdf::102                    0                       # What write queue length does an incoming req see
system.mem_ctrls0.wrQLenPdf::103                    0                       # What write queue length does an incoming req see
system.mem_ctrls0.wrQLenPdf::104                    0                       # What write queue length does an incoming req see
system.mem_ctrls0.wrQLenPdf::105                    0                       # What write queue length does an incoming req see
system.mem_ctrls0.wrQLenPdf::106                    0                       # What write queue length does an incoming req see
system.mem_ctrls0.wrQLenPdf::107                    0                       # What write queue length does an incoming req see
system.mem_ctrls0.wrQLenPdf::108                    0                       # What write queue length does an incoming req see
system.mem_ctrls0.wrQLenPdf::109                    0                       # What write queue length does an incoming req see
system.mem_ctrls0.wrQLenPdf::110                    0                       # What write queue length does an incoming req see
system.mem_ctrls0.wrQLenPdf::111                    0                       # What write queue length does an incoming req see
system.mem_ctrls0.wrQLenPdf::112                    0                       # What write queue length does an incoming req see
system.mem_ctrls0.wrQLenPdf::113                    0                       # What write queue length does an incoming req see
system.mem_ctrls0.wrQLenPdf::114                    0                       # What write queue length does an incoming req see
system.mem_ctrls0.wrQLenPdf::115                    0                       # What write queue length does an incoming req see
system.mem_ctrls0.wrQLenPdf::116                    0                       # What write queue length does an incoming req see
system.mem_ctrls0.wrQLenPdf::117                    0                       # What write queue length does an incoming req see
system.mem_ctrls0.wrQLenPdf::118                    0                       # What write queue length does an incoming req see
system.mem_ctrls0.wrQLenPdf::119                    0                       # What write queue length does an incoming req see
system.mem_ctrls0.wrQLenPdf::120                    0                       # What write queue length does an incoming req see
system.mem_ctrls0.wrQLenPdf::121                    0                       # What write queue length does an incoming req see
system.mem_ctrls0.wrQLenPdf::122                    0                       # What write queue length does an incoming req see
system.mem_ctrls0.wrQLenPdf::123                    0                       # What write queue length does an incoming req see
system.mem_ctrls0.wrQLenPdf::124                    0                       # What write queue length does an incoming req see
system.mem_ctrls0.wrQLenPdf::125                    0                       # What write queue length does an incoming req see
system.mem_ctrls0.wrQLenPdf::126                    0                       # What write queue length does an incoming req see
system.mem_ctrls0.wrQLenPdf::127                    0                       # What write queue length does an incoming req see
system.mem_ctrls0.bytesPerActivate::samples        15349                       # Bytes accessed per row activation
system.mem_ctrls0.bytesPerActivate::mean   137.535996                       # Bytes accessed per row activation
system.mem_ctrls0.bytesPerActivate::gmean   109.686563                       # Bytes accessed per row activation
system.mem_ctrls0.bytesPerActivate::stdev   109.760384                       # Bytes accessed per row activation
system.mem_ctrls0.bytesPerActivate::0-127         7732     50.37%     50.37% # Bytes accessed per row activation
system.mem_ctrls0.bytesPerActivate::128-255         5060     32.97%     83.34% # Bytes accessed per row activation
system.mem_ctrls0.bytesPerActivate::256-383         1602     10.44%     93.78% # Bytes accessed per row activation
system.mem_ctrls0.bytesPerActivate::384-511          663      4.32%     98.10% # Bytes accessed per row activation
system.mem_ctrls0.bytesPerActivate::512-639          239      1.56%     99.65% # Bytes accessed per row activation
system.mem_ctrls0.bytesPerActivate::640-767           31      0.20%     99.86% # Bytes accessed per row activation
system.mem_ctrls0.bytesPerActivate::768-895           10      0.07%     99.92% # Bytes accessed per row activation
system.mem_ctrls0.bytesPerActivate::896-1023            7      0.05%     99.97% # Bytes accessed per row activation
system.mem_ctrls0.bytesPerActivate::1024-1151            5      0.03%    100.00% # Bytes accessed per row activation
system.mem_ctrls0.bytesPerActivate::total        15349                       # Bytes accessed per row activation
system.mem_ctrls0.rdPerTurnAround::samples          949                       # Reads before turning the bus around for writes
system.mem_ctrls0.rdPerTurnAround::mean     17.518440                       # Reads before turning the bus around for writes
system.mem_ctrls0.rdPerTurnAround::stdev     4.023524                       # Reads before turning the bus around for writes
system.mem_ctrls0.rdPerTurnAround::0                5      0.53%      0.53% # Reads before turning the bus around for writes
system.mem_ctrls0.rdPerTurnAround::1                3      0.32%      0.84% # Reads before turning the bus around for writes
system.mem_ctrls0.rdPerTurnAround::2                1      0.11%      0.95% # Reads before turning the bus around for writes
system.mem_ctrls0.rdPerTurnAround::3                2      0.21%      1.16% # Reads before turning the bus around for writes
system.mem_ctrls0.rdPerTurnAround::4                1      0.11%      1.26% # Reads before turning the bus around for writes
system.mem_ctrls0.rdPerTurnAround::6                1      0.11%      1.37% # Reads before turning the bus around for writes
system.mem_ctrls0.rdPerTurnAround::7                2      0.21%      1.58% # Reads before turning the bus around for writes
system.mem_ctrls0.rdPerTurnAround::8                2      0.21%      1.79% # Reads before turning the bus around for writes
system.mem_ctrls0.rdPerTurnAround::9                5      0.53%      2.32% # Reads before turning the bus around for writes
system.mem_ctrls0.rdPerTurnAround::10               4      0.42%      2.74% # Reads before turning the bus around for writes
system.mem_ctrls0.rdPerTurnAround::11               9      0.95%      3.69% # Reads before turning the bus around for writes
system.mem_ctrls0.rdPerTurnAround::12              20      2.11%      5.80% # Reads before turning the bus around for writes
system.mem_ctrls0.rdPerTurnAround::13              38      4.00%      9.80% # Reads before turning the bus around for writes
system.mem_ctrls0.rdPerTurnAround::14              58      6.11%     15.91% # Reads before turning the bus around for writes
system.mem_ctrls0.rdPerTurnAround::15              96     10.12%     26.03% # Reads before turning the bus around for writes
system.mem_ctrls0.rdPerTurnAround::16             112     11.80%     37.83% # Reads before turning the bus around for writes
system.mem_ctrls0.rdPerTurnAround::17             118     12.43%     50.26% # Reads before turning the bus around for writes
system.mem_ctrls0.rdPerTurnAround::18             115     12.12%     62.38% # Reads before turning the bus around for writes
system.mem_ctrls0.rdPerTurnAround::19             106     11.17%     73.55% # Reads before turning the bus around for writes
system.mem_ctrls0.rdPerTurnAround::20              83      8.75%     82.30% # Reads before turning the bus around for writes
system.mem_ctrls0.rdPerTurnAround::21              52      5.48%     87.78% # Reads before turning the bus around for writes
system.mem_ctrls0.rdPerTurnAround::22              49      5.16%     92.94% # Reads before turning the bus around for writes
system.mem_ctrls0.rdPerTurnAround::23              21      2.21%     95.15% # Reads before turning the bus around for writes
system.mem_ctrls0.rdPerTurnAround::24              15      1.58%     96.73% # Reads before turning the bus around for writes
system.mem_ctrls0.rdPerTurnAround::25              16      1.69%     98.42% # Reads before turning the bus around for writes
system.mem_ctrls0.rdPerTurnAround::26               2      0.21%     98.63% # Reads before turning the bus around for writes
system.mem_ctrls0.rdPerTurnAround::27               6      0.63%     99.26% # Reads before turning the bus around for writes
system.mem_ctrls0.rdPerTurnAround::28               3      0.32%     99.58% # Reads before turning the bus around for writes
system.mem_ctrls0.rdPerTurnAround::30               1      0.11%     99.68% # Reads before turning the bus around for writes
system.mem_ctrls0.rdPerTurnAround::32               1      0.11%     99.79% # Reads before turning the bus around for writes
system.mem_ctrls0.rdPerTurnAround::33               1      0.11%     99.89% # Reads before turning the bus around for writes
system.mem_ctrls0.rdPerTurnAround::56               1      0.11%    100.00% # Reads before turning the bus around for writes
system.mem_ctrls0.rdPerTurnAround::total          949                       # Reads before turning the bus around for writes
system.mem_ctrls0.wrPerTurnAround::samples          949                       # Writes before turning the bus around for reads
system.mem_ctrls0.wrPerTurnAround::mean     17.226554                       # Writes before turning the bus around for reads
system.mem_ctrls0.wrPerTurnAround::gmean    17.178717                       # Writes before turning the bus around for reads
system.mem_ctrls0.wrPerTurnAround::stdev     1.296820                       # Writes before turning the bus around for reads
system.mem_ctrls0.wrPerTurnAround::16             462     48.68%     48.68% # Writes before turning the bus around for reads
system.mem_ctrls0.wrPerTurnAround::17              17      1.79%     50.47% # Writes before turning the bus around for reads
system.mem_ctrls0.wrPerTurnAround::18             303     31.93%     82.40% # Writes before turning the bus around for reads
system.mem_ctrls0.wrPerTurnAround::19             131     13.80%     96.21% # Writes before turning the bus around for reads
system.mem_ctrls0.wrPerTurnAround::20              33      3.48%     99.68% # Writes before turning the bus around for reads
system.mem_ctrls0.wrPerTurnAround::21               2      0.21%     99.89% # Writes before turning the bus around for reads
system.mem_ctrls0.wrPerTurnAround::22               1      0.11%    100.00% # Writes before turning the bus around for reads
system.mem_ctrls0.wrPerTurnAround::total          949                       # Writes before turning the bus around for reads
system.mem_ctrls0.masterReadBytes::.switch_cpus_10.inst        17408                       # Per-master bytes read from memory
system.mem_ctrls0.masterReadBytes::.switch_cpus_10.data       255616                       # Per-master bytes read from memory
system.mem_ctrls0.masterReadBytes::.switch_cpus_11.inst        15744                       # Per-master bytes read from memory
system.mem_ctrls0.masterReadBytes::.switch_cpus_11.data       247872                       # Per-master bytes read from memory
system.mem_ctrls0.masterReadBytes::.switch_cpus_12.inst        17344                       # Per-master bytes read from memory
system.mem_ctrls0.masterReadBytes::.switch_cpus_12.data       241664                       # Per-master bytes read from memory
system.mem_ctrls0.masterReadBytes::.switch_cpus_13.inst        18112                       # Per-master bytes read from memory
system.mem_ctrls0.masterReadBytes::.switch_cpus_13.data       251008                       # Per-master bytes read from memory
system.mem_ctrls0.masterWriteBytes::.writebacks      1046272                       # Per-master bytes write to memory
system.mem_ctrls0.masterReadRate::.switch_cpus_10.inst 133324.351769270143                       # Per-master bytes read from memory rate (Bytes/sec)
system.mem_ctrls0.masterReadRate::.switch_cpus_10.data 1957711.253553180024                       # Per-master bytes read from memory rate (Bytes/sec)
system.mem_ctrls0.masterReadRate::.switch_cpus_11.inst 120580.112261913455                       # Per-master bytes read from memory rate (Bytes/sec)
system.mem_ctrls0.masterReadRate::.switch_cpus_11.data 1898401.523538173875                       # Per-master bytes read from memory rate (Bytes/sec)
system.mem_ctrls0.masterReadRate::.switch_cpus_12.inst 132834.188711294904                       # Per-master bytes read from memory rate (Bytes/sec)
system.mem_ctrls0.masterReadRate::.switch_cpus_12.data 1850855.706914573908                       # Per-master bytes read from memory rate (Bytes/sec)
system.mem_ctrls0.masterReadRate::.switch_cpus_13.inst 138716.145406997995                       # Per-master bytes read from memory rate (Bytes/sec)
system.mem_ctrls0.masterReadRate::.switch_cpus_13.data 1922419.513378961477                       # Per-master bytes read from memory rate (Bytes/sec)
system.mem_ctrls0.masterWriteRate::.writebacks 8013185.671779516153                       # Per-master bytes write to memory rate (Bytes/sec)
system.mem_ctrls0.masterReadAccesses::.switch_cpus_10.inst          272                       # Per-master read serviced memory accesses
system.mem_ctrls0.masterReadAccesses::.switch_cpus_10.data         4028                       # Per-master read serviced memory accesses
system.mem_ctrls0.masterReadAccesses::.switch_cpus_11.inst          246                       # Per-master read serviced memory accesses
system.mem_ctrls0.masterReadAccesses::.switch_cpus_11.data         3915                       # Per-master read serviced memory accesses
system.mem_ctrls0.masterReadAccesses::.switch_cpus_12.inst          271                       # Per-master read serviced memory accesses
system.mem_ctrls0.masterReadAccesses::.switch_cpus_12.data         3810                       # Per-master read serviced memory accesses
system.mem_ctrls0.masterReadAccesses::.switch_cpus_13.inst          283                       # Per-master read serviced memory accesses
system.mem_ctrls0.masterReadAccesses::.switch_cpus_13.data         3964                       # Per-master read serviced memory accesses
system.mem_ctrls0.masterWriteAccesses::.writebacks        16411                       # Per-master write serviced memory accesses
system.mem_ctrls0.masterReadTotalLat::.switch_cpus_10.inst     18874710                       # Per-master read total memory access latency
system.mem_ctrls0.masterReadTotalLat::.switch_cpus_10.data    198611923                       # Per-master read total memory access latency
system.mem_ctrls0.masterReadTotalLat::.switch_cpus_11.inst     19908401                       # Per-master read total memory access latency
system.mem_ctrls0.masterReadTotalLat::.switch_cpus_11.data    200566951                       # Per-master read total memory access latency
system.mem_ctrls0.masterReadTotalLat::.switch_cpus_12.inst     25260909                       # Per-master read total memory access latency
system.mem_ctrls0.masterReadTotalLat::.switch_cpus_12.data    208867531                       # Per-master read total memory access latency
system.mem_ctrls0.masterReadTotalLat::.switch_cpus_13.inst     30981490                       # Per-master read total memory access latency
system.mem_ctrls0.masterReadTotalLat::.switch_cpus_13.data    206087893                       # Per-master read total memory access latency
system.mem_ctrls0.masterWriteTotalLat::.writebacks 6487189333959                       # Per-master write total memory access latency
system.mem_ctrls0.masterReadAvgLat::.switch_cpus_10.inst     69392.32                       # Per-master read average memory access latency
system.mem_ctrls0.masterReadAvgLat::.switch_cpus_10.data     49307.83                       # Per-master read average memory access latency
system.mem_ctrls0.masterReadAvgLat::.switch_cpus_11.inst     80928.46                       # Per-master read average memory access latency
system.mem_ctrls0.masterReadAvgLat::.switch_cpus_11.data     51230.38                       # Per-master read average memory access latency
system.mem_ctrls0.masterReadAvgLat::.switch_cpus_12.inst     93213.69                       # Per-master read average memory access latency
system.mem_ctrls0.masterReadAvgLat::.switch_cpus_12.data     54820.87                       # Per-master read average memory access latency
system.mem_ctrls0.masterReadAvgLat::.switch_cpus_13.inst    109475.23                       # Per-master read average memory access latency
system.mem_ctrls0.masterReadAvgLat::.switch_cpus_13.data     51989.88                       # Per-master read average memory access latency
system.mem_ctrls0.masterWriteAvgLat::.writebacks 395295188.22                       # Per-master write average memory access latency
system.mem_ctrls0.totQLat                   612022988                       # Total ticks spent queuing
system.mem_ctrls0.totMemAccLat              909159808                       # Total ticks spent from burst creation until serviced by the DRAM
system.mem_ctrls0.totBusLat                  62555120                       # Total ticks spent in databus transfers
system.mem_ctrls0.avgQLat                    36786.86                       # Average queueing delay per DRAM burst
system.mem_ctrls0.avgBusLat                   3760.00                       # Average bus latency per DRAM burst
system.mem_ctrls0.avgMemAccLat               54646.86                       # Average memory access latency per DRAM burst
system.mem_ctrls0.avgRdBW                        8.15                       # Average DRAM read bandwidth in MiByte/s
system.mem_ctrls0.avgWrBW                        8.01                       # Average achieved write bandwidth in MiByte/s
system.mem_ctrls0.avgRdBWSys                     8.23                       # Average system read bandwidth in MiByte/s
system.mem_ctrls0.avgWrBWSys                     8.04                       # Average system write bandwidth in MiByte/s
system.mem_ctrls0.peakBW                     17021.00                       # Theoretical peak bandwidth in MiByte/s
system.mem_ctrls0.busUtil                        0.09                       # Data bus utilization in percentage
system.mem_ctrls0.busUtilRead                    0.05                       # Data bus utilization in percentage for reads
system.mem_ctrls0.busUtilWrite                   0.05                       # Data bus utilization in percentage for writes
system.mem_ctrls0.avgRdQLen                      1.20                       # Average read queue length when enqueuing
system.mem_ctrls0.avgWrQLen                     56.72                       # Average write queue length when enqueuing
system.mem_ctrls0.readRowHits                    7721                       # Number of row buffer hits during reads
system.mem_ctrls0.writeRowHits                   9915                       # Number of row buffer hits during writes
system.mem_ctrls0.readRowHitRate                46.41                       # Row buffer hit rate for reads
system.mem_ctrls0.writeRowHitRate               60.42                       # Row buffer hit rate for writes
system.mem_ctrls0.avgGap                   3921705.90                       # Average gap between requests
system.mem_ctrls0.pageHitRate                   53.36                       # Row buffer hit rate, read and write combined
system.mem_ctrls0_0.actEnergy                       0                       # Energy for activate commands per rank (pJ)
system.mem_ctrls0_0.preEnergy            16850932.560000                       # Energy for precharge commands per rank (pJ)
system.mem_ctrls0_0.readEnergy           18637222.080000                       # Energy for read commands per rank (pJ)
system.mem_ctrls0_0.writeEnergy              23488344                       # Energy for write commands per rank (pJ)
system.mem_ctrls0_0.refreshEnergy        319886203.680001                       # Energy for refresh commands per rank (pJ)
system.mem_ctrls0_0.actBackEnergy        497047830.719999                       # Energy for active background per rank (pJ)
system.mem_ctrls0_0.preBackEnergy        31049851.392000                       # Energy for precharge background per rank (pJ)
system.mem_ctrls0_0.actPowerDownEnergy   1003157291.520001                       # Energy for active power-down per rank (pJ)
system.mem_ctrls0_0.prePowerDownEnergy   433328644.800000                       # Energy for precharge power-down per rank (pJ)
system.mem_ctrls0_0.selfRefreshEnergy    36143993410.800011                       # Energy for self refresh per rank (pJ)
system.mem_ctrls0_0.totalEnergy          38487816765.552025                       # Total energy per rank (pJ)
system.mem_ctrls0_0.averagePower           294.770406                       # Core power per rank (mW)
system.mem_ctrls0_0.totalIdleTime        128493558340                       # Total Idle time Per DRAM Rank
system.mem_ctrls0_0.memoryStateTime::IDLE     60625070                       # Time in different power states
system.mem_ctrls0_0.memoryStateTime::REF    176280000                       # Time in different power states
system.mem_ctrls0_0.memoryStateTime::SREF 125227887620                       # Time in different power states
system.mem_ctrls0_0.memoryStateTime::PRE_PDN   1805540830                       # Time in different power states
system.mem_ctrls0_0.memoryStateTime::ACT    686081720                       # Time in different power states
system.mem_ctrls0_0.memoryStateTime::ACT_PDN   2612380100                       # Time in different power states
system.mem_ctrls0_1.actEnergy                       0                       # Energy for activate commands per rank (pJ)
system.mem_ctrls0_1.preEnergy            23143649.760000                       # Energy for precharge commands per rank (pJ)
system.mem_ctrls0_1.readEnergy           25651802.880000                       # Energy for read commands per rank (pJ)
system.mem_ctrls0_1.writeEnergy              31833288                       # Energy for write commands per rank (pJ)
system.mem_ctrls0_1.refreshEnergy        350081951.520002                       # Energy for refresh commands per rank (pJ)
system.mem_ctrls0_1.actBackEnergy        547765417.919999                       # Energy for active background per rank (pJ)
system.mem_ctrls0_1.preBackEnergy        30093993.216000                       # Energy for precharge background per rank (pJ)
system.mem_ctrls0_1.actPowerDownEnergy   1156311536.640002                       # Energy for active power-down per rank (pJ)
system.mem_ctrls0_1.prePowerDownEnergy   436048027.200001                       # Energy for precharge power-down per rank (pJ)
system.mem_ctrls0_1.selfRefreshEnergy    35994960031.679985                       # Energy for self refresh per rank (pJ)
system.mem_ctrls0_1.totalEnergy          38595984924.576027                       # Total energy per rank (pJ)
system.mem_ctrls0_1.averagePower           295.598844                       # Core power per rank (mW)
system.mem_ctrls0_1.totalIdleTime        128404120372                       # Total Idle time Per DRAM Rank
system.mem_ctrls0_1.memoryStateTime::IDLE     56257030                       # Time in different power states
system.mem_ctrls0_1.memoryStateTime::REF    192920000                       # Time in different power states
system.mem_ctrls0_1.memoryStateTime::SREF 124734320100                       # Time in different power states
system.mem_ctrls0_1.memoryStateTime::PRE_PDN   1816855330                       # Time in different power states
system.mem_ctrls0_1.memoryStateTime::ACT    757198478                       # Time in different power states
system.mem_ctrls0_1.memoryStateTime::ACT_PDN   3011244402                       # Time in different power states
system.mem_ctrls1.pwrStateResidencyTicks::UNDEFINED 179978708250                       # Cumulative time (in ticks) in various power states
system.mem_ctrls1.bytes_read::.switch_cpus_10.inst        16000                       # Number of bytes read from this memory
system.mem_ctrls1.bytes_read::.switch_cpus_10.data       257472                       # Number of bytes read from this memory
system.mem_ctrls1.bytes_read::.switch_cpus_11.inst        17728                       # Number of bytes read from this memory
system.mem_ctrls1.bytes_read::.switch_cpus_11.data       250624                       # Number of bytes read from this memory
system.mem_ctrls1.bytes_read::.switch_cpus_12.inst        16960                       # Number of bytes read from this memory
system.mem_ctrls1.bytes_read::.switch_cpus_12.data       244352                       # Number of bytes read from this memory
system.mem_ctrls1.bytes_read::.switch_cpus_13.inst        16576                       # Number of bytes read from this memory
system.mem_ctrls1.bytes_read::.switch_cpus_13.data       253696                       # Number of bytes read from this memory
system.mem_ctrls1.bytes_read::total           1073408                       # Number of bytes read from this memory
system.mem_ctrls1.bytes_inst_read::.switch_cpus_10.inst        16000                       # Number of instructions bytes read from this memory
system.mem_ctrls1.bytes_inst_read::.switch_cpus_11.inst        17728                       # Number of instructions bytes read from this memory
system.mem_ctrls1.bytes_inst_read::.switch_cpus_12.inst        16960                       # Number of instructions bytes read from this memory
system.mem_ctrls1.bytes_inst_read::.switch_cpus_13.inst        16576                       # Number of instructions bytes read from this memory
system.mem_ctrls1.bytes_inst_read::total        67264                       # Number of instructions bytes read from this memory
system.mem_ctrls1.bytes_written::.writebacks      1050624                       # Number of bytes written to this memory
system.mem_ctrls1.bytes_written::total        1050624                       # Number of bytes written to this memory
system.mem_ctrls1.num_reads::.switch_cpus_10.inst          250                       # Number of read requests responded to by this memory
system.mem_ctrls1.num_reads::.switch_cpus_10.data         4023                       # Number of read requests responded to by this memory
system.mem_ctrls1.num_reads::.switch_cpus_11.inst          277                       # Number of read requests responded to by this memory
system.mem_ctrls1.num_reads::.switch_cpus_11.data         3916                       # Number of read requests responded to by this memory
system.mem_ctrls1.num_reads::.switch_cpus_12.inst          265                       # Number of read requests responded to by this memory
system.mem_ctrls1.num_reads::.switch_cpus_12.data         3818                       # Number of read requests responded to by this memory
system.mem_ctrls1.num_reads::.switch_cpus_13.inst          259                       # Number of read requests responded to by this memory
system.mem_ctrls1.num_reads::.switch_cpus_13.data         3964                       # Number of read requests responded to by this memory
system.mem_ctrls1.num_reads::total              16772                       # Number of read requests responded to by this memory
system.mem_ctrls1.num_writes::.writebacks        16416                       # Number of write requests responded to by this memory
system.mem_ctrls1.num_writes::total             16416                       # Number of write requests responded to by this memory
system.mem_ctrls1.bw_read::.switch_cpus_10.inst       122541                       # Total read bandwidth from this memory (bytes/s)
system.mem_ctrls1.bw_read::.switch_cpus_10.data      1971926                       # Total read bandwidth from this memory (bytes/s)
system.mem_ctrls1.bw_read::.switch_cpus_11.inst       135775                       # Total read bandwidth from this memory (bytes/s)
system.mem_ctrls1.bw_read::.switch_cpus_11.data      1919479                       # Total read bandwidth from this memory (bytes/s)
system.mem_ctrls1.bw_read::.switch_cpus_12.inst       129893                       # Total read bandwidth from this memory (bytes/s)
system.mem_ctrls1.bw_read::.switch_cpus_12.data      1871443                       # Total read bandwidth from this memory (bytes/s)
system.mem_ctrls1.bw_read::.switch_cpus_13.inst       126952                       # Total read bandwidth from this memory (bytes/s)
system.mem_ctrls1.bw_read::.switch_cpus_13.data      1943006                       # Total read bandwidth from this memory (bytes/s)
system.mem_ctrls1.bw_read::total              8221015                       # Total read bandwidth from this memory (bytes/s)
system.mem_ctrls1.bw_inst_read::.switch_cpus_10.inst       122541                       # Instruction read bandwidth from this memory (bytes/s)
system.mem_ctrls1.bw_inst_read::.switch_cpus_11.inst       135775                       # Instruction read bandwidth from this memory (bytes/s)
system.mem_ctrls1.bw_inst_read::.switch_cpus_12.inst       129893                       # Instruction read bandwidth from this memory (bytes/s)
system.mem_ctrls1.bw_inst_read::.switch_cpus_13.inst       126952                       # Instruction read bandwidth from this memory (bytes/s)
system.mem_ctrls1.bw_inst_read::total          515161                       # Instruction read bandwidth from this memory (bytes/s)
system.mem_ctrls1.bw_write::.writebacks       8046517                       # Write bandwidth from this memory (bytes/s)
system.mem_ctrls1.bw_write::total             8046517                       # Write bandwidth from this memory (bytes/s)
system.mem_ctrls1.bw_total::.writebacks       8046517                       # Total bandwidth to/from this memory (bytes/s)
system.mem_ctrls1.bw_total::.switch_cpus_10.inst       122541                       # Total bandwidth to/from this memory (bytes/s)
system.mem_ctrls1.bw_total::.switch_cpus_10.data      1971926                       # Total bandwidth to/from this memory (bytes/s)
system.mem_ctrls1.bw_total::.switch_cpus_11.inst       135775                       # Total bandwidth to/from this memory (bytes/s)
system.mem_ctrls1.bw_total::.switch_cpus_11.data      1919479                       # Total bandwidth to/from this memory (bytes/s)
system.mem_ctrls1.bw_total::.switch_cpus_12.inst       129893                       # Total bandwidth to/from this memory (bytes/s)
system.mem_ctrls1.bw_total::.switch_cpus_12.data      1871443                       # Total bandwidth to/from this memory (bytes/s)
system.mem_ctrls1.bw_total::.switch_cpus_13.inst       126952                       # Total bandwidth to/from this memory (bytes/s)
system.mem_ctrls1.bw_total::.switch_cpus_13.data      1943006                       # Total bandwidth to/from this memory (bytes/s)
system.mem_ctrls1.bw_total::total            16267532                       # Total bandwidth to/from this memory (bytes/s)
system.mem_ctrls1.avgPriority_.writebacks::samples     16416.00                       # Average QoS priority value for accepted requests
system.mem_ctrls1.avgPriority_.switch_cpus_10.inst::samples       250.00                       # Average QoS priority value for accepted requests
system.mem_ctrls1.avgPriority_.switch_cpus_10.data::samples      3987.00                       # Average QoS priority value for accepted requests
system.mem_ctrls1.avgPriority_.switch_cpus_11.inst::samples       277.00                       # Average QoS priority value for accepted requests
system.mem_ctrls1.avgPriority_.switch_cpus_11.data::samples      3878.00                       # Average QoS priority value for accepted requests
system.mem_ctrls1.avgPriority_.switch_cpus_12.inst::samples       265.00                       # Average QoS priority value for accepted requests
system.mem_ctrls1.avgPriority_.switch_cpus_12.data::samples      3774.00                       # Average QoS priority value for accepted requests
system.mem_ctrls1.avgPriority_.switch_cpus_13.inst::samples       259.00                       # Average QoS priority value for accepted requests
system.mem_ctrls1.avgPriority_.switch_cpus_13.data::samples      3926.00                       # Average QoS priority value for accepted requests
system.mem_ctrls1.priorityMinLatency     0.000000017860                       # per QoS priority minimum request to response latency (s)
system.mem_ctrls1.priorityMaxLatency     0.031802204540                       # per QoS priority maximum request to response latency (s)
system.mem_ctrls1.numReadWriteTurnArounds          953                       # Number of turnarounds from READ to WRITE
system.mem_ctrls1.numWriteReadTurnArounds          953                       # Number of turnarounds from WRITE to READ
system.mem_ctrls1.numStayReadState              48675                       # Number of times bus staying in READ state
system.mem_ctrls1.numStayWriteState             15428                       # Number of times bus staying in WRITE state
system.mem_ctrls1.readReqs                      16772                       # Number of read requests accepted
system.mem_ctrls1.writeReqs                     16416                       # Number of write requests accepted
system.mem_ctrls1.readBursts                    16772                       # Number of DRAM read bursts, including those serviced by the write queue
system.mem_ctrls1.writeBursts                   16416                       # Number of DRAM write bursts, including those merged in the write queue
system.mem_ctrls1.bytesReadDRAM               1063424                       # Total number of bytes read from DRAM
system.mem_ctrls1.bytesReadWrQ                   9984                       # Total number of bytes read from write queue
system.mem_ctrls1.bytesWritten                1046976                       # Total number of bytes written to DRAM
system.mem_ctrls1.bytesReadSys                1073408                       # Total read bytes from the system interface side
system.mem_ctrls1.bytesWrittenSys             1050624                       # Total written bytes from the system interface side
system.mem_ctrls1.servicedByWrQ                   156                       # Number of DRAM read bursts serviced by the write queue
system.mem_ctrls1.mergedWrBursts                    0                       # Number of DRAM write bursts merged with an existing one
system.mem_ctrls1.neitherReadNorWriteReqs            0                       # Number of requests that are neither read nor write
system.mem_ctrls1.perBankRdBursts::0              385                       # Per bank write bursts
system.mem_ctrls1.perBankRdBursts::1              315                       # Per bank write bursts
system.mem_ctrls1.perBankRdBursts::2              345                       # Per bank write bursts
system.mem_ctrls1.perBankRdBursts::3              337                       # Per bank write bursts
system.mem_ctrls1.perBankRdBursts::4              475                       # Per bank write bursts
system.mem_ctrls1.perBankRdBursts::5              666                       # Per bank write bursts
system.mem_ctrls1.perBankRdBursts::6              547                       # Per bank write bursts
system.mem_ctrls1.perBankRdBursts::7              310                       # Per bank write bursts
system.mem_ctrls1.perBankRdBursts::8              305                       # Per bank write bursts
system.mem_ctrls1.perBankRdBursts::9              305                       # Per bank write bursts
system.mem_ctrls1.perBankRdBursts::10             518                       # Per bank write bursts
system.mem_ctrls1.perBankRdBursts::11             690                       # Per bank write bursts
system.mem_ctrls1.perBankRdBursts::12             396                       # Per bank write bursts
system.mem_ctrls1.perBankRdBursts::13             445                       # Per bank write bursts
system.mem_ctrls1.perBankRdBursts::14             584                       # Per bank write bursts
system.mem_ctrls1.perBankRdBursts::15             438                       # Per bank write bursts
system.mem_ctrls1.perBankRdBursts::16             425                       # Per bank write bursts
system.mem_ctrls1.perBankRdBursts::17             660                       # Per bank write bursts
system.mem_ctrls1.perBankRdBursts::18             714                       # Per bank write bursts
system.mem_ctrls1.perBankRdBursts::19             558                       # Per bank write bursts
system.mem_ctrls1.perBankRdBursts::20             467                       # Per bank write bursts
system.mem_ctrls1.perBankRdBursts::21             528                       # Per bank write bursts
system.mem_ctrls1.perBankRdBursts::22             614                       # Per bank write bursts
system.mem_ctrls1.perBankRdBursts::23             752                       # Per bank write bursts
system.mem_ctrls1.perBankRdBursts::24             826                       # Per bank write bursts
system.mem_ctrls1.perBankRdBursts::25             590                       # Per bank write bursts
system.mem_ctrls1.perBankRdBursts::26             447                       # Per bank write bursts
system.mem_ctrls1.perBankRdBursts::27             461                       # Per bank write bursts
system.mem_ctrls1.perBankRdBursts::28             496                       # Per bank write bursts
system.mem_ctrls1.perBankRdBursts::29             712                       # Per bank write bursts
system.mem_ctrls1.perBankRdBursts::30             730                       # Per bank write bursts
system.mem_ctrls1.perBankRdBursts::31             575                       # Per bank write bursts
system.mem_ctrls1.perBankWrBursts::0              375                       # Per bank write bursts
system.mem_ctrls1.perBankWrBursts::1              303                       # Per bank write bursts
system.mem_ctrls1.perBankWrBursts::2              331                       # Per bank write bursts
[...]
system.switch_cpus_13.iew.memOrderViolationEvents         8157                       # Number of memory order violations
system.switch_cpus_13.iew.predictedTakenIncorrect       129645                       # Number of branches that were predicted taken incorrectly
system.switch_cpus_13.iew.predictedNotTakenIncorrect       243332                       # Number of branches that were predicted not taken incorrectly
system.switch_cpus_13.iew.branchMispredicts       372977                       # Number of branch mispredicts detected at execute
system.switch_cpus_13.iew.iewExecutedInsts    763202248                       # Number of executed instructions
system.switch_cpus_13.iew.iewExecLoadInsts    216051842                       # Number of load instructions executed
system.switch_cpus_13.iew.iewExecSquashedInsts       496030                       # Number of squashed instructions skipped in execute
system.switch_cpus_13.iew.exec_swp                  0                       # number of swp insts executed
system.switch_cpus_13.iew.exec_nop                  0                       # number of nop insts executed
system.switch_cpus_13.iew.exec_refs         292376764                       # number of memory reference insts executed
system.switch_cpus_13.iew.exec_branches      25070451                       # Number of branches executed
system.switch_cpus_13.iew.exec_stores        76324922                       # Number of stores executed
system.switch_cpus_13.iew.exec_rate          1.461303                       # Inst execution rate
system.switch_cpus_13.iew.wb_sent           762732904                       # cumulative count of insts sent to commit
system.switch_cpus_13.iew.wb_count          762649893                       # cumulative count of insts written-back
system.switch_cpus_13.iew.wb_producers      630449826                       # num instructions producing a value
system.switch_cpus_13.iew.wb_consumers     1220644870                       # num instructions consuming a value
system.switch_cpus_13.iew.wb_rate            1.460245                       # insts written-back per cycle
system.switch_cpus_13.iew.wb_fanout          0.516489                       # average fanout of values written-back
system.switch_cpus_13.commit.commitSquashedInsts      7367183                       # The number of squashed insts skipped by commit
system.switch_cpus_13.commit.commitNonSpecStalls         4234                       # The number of times commit has been forced to stall to communicate backwards
system.switch_cpus_13.commit.branchMispredicts       317695                       # The number of times a branch was mispredicted
system.switch_cpus_13.commit.committed_per_cycle::samples    520921575                       # Number of insts commited each cycle
system.switch_cpus_13.commit.committed_per_cycle::mean     1.456152                       # Number of insts commited each cycle
system.switch_cpus_13.commit.committed_per_cycle::stdev     1.947057                       # Number of insts commited each cycle
system.switch_cpus_13.commit.committed_per_cycle::underflows            0      0.00%      0.00% # Number of insts commited each cycle
system.switch_cpus_13.commit.committed_per_cycle::0    183599436     35.25%     35.25% # Number of insts commited each cycle
system.switch_cpus_13.commit.committed_per_cycle::1    213227842     40.93%     76.18% # Number of insts commited each cycle
system.switch_cpus_13.commit.committed_per_cycle::2     22937294      4.40%     80.58% # Number of insts commited each cycle
system.switch_cpus_13.commit.committed_per_cycle::3     24054474      4.62%     85.20% # Number of insts commited each cycle
system.switch_cpus_13.commit.committed_per_cycle::4     31307531      6.01%     91.21% # Number of insts commited each cycle
system.switch_cpus_13.commit.committed_per_cycle::5     13202601      2.53%     93.74% # Number of insts commited each cycle
system.switch_cpus_13.commit.committed_per_cycle::6      5810185      1.12%     94.86% # Number of insts commited each cycle
system.switch_cpus_13.commit.committed_per_cycle::7     13086674      2.51%     97.37% # Number of insts commited each cycle
system.switch_cpus_13.commit.committed_per_cycle::8     13695538      2.63%    100.00% # Number of insts commited each cycle
system.switch_cpus_13.commit.committed_per_cycle::overflows            0      0.00%    100.00% # Number of insts commited each cycle
system.switch_cpus_13.commit.committed_per_cycle::min_value            0                       # Number of insts commited each cycle
system.switch_cpus_13.commit.committed_per_cycle::max_value            8                       # Number of insts commited each cycle
system.switch_cpus_13.commit.committed_per_cycle::total    520921575                       # Number of insts commited each cycle
system.switch_cpus_13.commit.committedInsts    499974845                       # Number of instructions committed
system.switch_cpus_13.commit.committedOps    758541113                       # Number of ops (including micro ops) committed
system.switch_cpus_13.commit.swp_count              0                       # Number of s/w prefetches committed
system.switch_cpus_13.commit.refs           290902538                       # Number of memory references committed
system.switch_cpus_13.commit.loads          214790472                       # Number of loads committed
system.switch_cpus_13.commit.membars             2820                       # Number of memory barriers committed
system.switch_cpus_13.commit.branches        24752472                       # Number of branches committed
system.switch_cpus_13.commit.vec_insts              0                       # Number of committed Vector instructions.
system.switch_cpus_13.commit.fp_insts         3772426                       # Number of committed floating point instructions.
system.switch_cpus_13.commit.int_insts      756082863                       # Number of committed integer instructions.
system.switch_cpus_13.commit.function_calls       151671                       # Number of function calls committed.
system.switch_cpus_13.commit.op_class_0::No_OpClass       126524      0.02%      0.02% # Class of committed instruction
system.switch_cpus_13.commit.op_class_0::IntAlu    465248359     61.33%     61.35% # Class of committed instruction
system.switch_cpus_13.commit.op_class_0::IntMult          106      0.00%     61.35% # Class of committed instruction
system.switch_cpus_13.commit.op_class_0::IntDiv            0      0.00%     61.35% # Class of committed instruction
system.switch_cpus_13.commit.op_class_0::FloatAdd       997124      0.13%     61.48% # Class of committed instruction
system.switch_cpus_13.commit.op_class_0::FloatCmp            0      0.00%     61.48% # Class of committed instruction
system.switch_cpus_13.commit.op_class_0::FloatCvt            0      0.00%     61.48% # Class of committed instruction
system.switch_cpus_13.commit.op_class_0::FloatMult            0      0.00%     61.48% # Class of committed instruction
system.switch_cpus_13.commit.op_class_0::FloatMultAcc            0      0.00%     61.48% # Class of committed instruction
system.switch_cpus_13.commit.op_class_0::FloatDiv            0      0.00%     61.48% # Class of committed instruction
system.switch_cpus_13.commit.op_class_0::FloatMisc            0      0.00%     61.48% # Class of committed instruction
system.switch_cpus_13.commit.op_class_0::FloatSqrt            0      0.00%     61.48% # Class of committed instruction
system.switch_cpus_13.commit.op_class_0::SimdAdd            0      0.00%     61.48% # Class of committed instruction
system.switch_cpus_13.commit.op_class_0::SimdAddAcc            0      0.00%     61.48% # Class of committed instruction
system.switch_cpus_13.commit.op_class_0::SimdAlu       158264      0.02%     61.50% # Class of committed instruction
system.switch_cpus_13.commit.op_class_0::SimdCmp          690      0.00%     61.50% # Class of committed instruction
system.switch_cpus_13.commit.op_class_0::SimdCvt       157142      0.02%     61.52% # Class of committed instruction
system.switch_cpus_13.commit.op_class_0::SimdMisc       293096      0.04%     61.56% # Class of committed instruction
system.switch_cpus_13.commit.op_class_0::SimdMult            0      0.00%     61.56% # Class of committed instruction
system.switch_cpus_13.commit.op_class_0::SimdMultAcc            0      0.00%     61.56% # Class of committed instruction
system.switch_cpus_13.commit.op_class_0::SimdShift            0      0.00%     61.56% # Class of committed instruction
system.switch_cpus_13.commit.op_class_0::SimdShiftAcc            0      0.00%     61.56% # Class of committed instruction
system.switch_cpus_13.commit.op_class_0::SimdSqrt            0      0.00%     61.56% # Class of committed instruction
system.switch_cpus_13.commit.op_class_0::SimdFloatAdd       241240      0.03%     61.59% # Class of committed instruction
system.switch_cpus_13.commit.op_class_0::SimdFloatAlu            0      0.00%     61.59% # Class of committed instruction
system.switch_cpus_13.commit.op_class_0::SimdFloatCmp          208      0.00%     61.59% # Class of committed instruction
system.switch_cpus_13.commit.op_class_0::SimdFloatCvt       366602      0.05%     61.64% # Class of committed instruction
system.switch_cpus_13.commit.op_class_0::SimdFloatDiv         4093      0.00%     61.64% # Class of committed instruction
system.switch_cpus_13.commit.op_class_0::SimdFloatMisc            0      0.00%     61.64% # Class of committed instruction
system.switch_cpus_13.commit.op_class_0::SimdFloatMult        45127      0.01%     61.65% # Class of committed instruction
system.switch_cpus_13.commit.op_class_0::SimdFloatMultAcc            0      0.00%     61.65% # Class of committed instruction
system.switch_cpus_13.commit.op_class_0::SimdFloatSqrt            0      0.00%     61.65% # Class of committed instruction
system.switch_cpus_13.commit.op_class_0::SimdAes            0      0.00%     61.65% # Class of committed instruction
system.switch_cpus_13.commit.op_class_0::SimdAesMix            0      0.00%     61.65% # Class of committed instruction
system.switch_cpus_13.commit.op_class_0::SimdSha1Hash            0      0.00%     61.65% # Class of committed instruction
system.switch_cpus_13.commit.op_class_0::SimdSha1Hash2            0      0.00%     61.65% # Class of committed instruction
system.switch_cpus_13.commit.op_class_0::SimdSha256Hash            0      0.00%     61.65% # Class of committed instruction
system.switch_cpus_13.commit.op_class_0::SimdSha256Hash2            0      0.00%     61.65% # Class of committed instruction
system.switch_cpus_13.commit.op_class_0::SimdShaSigma2            0      0.00%     61.65% # Class of committed instruction
system.switch_cpus_13.commit.op_class_0::SimdShaSigma3            0      0.00%     61.65% # Class of committed instruction
system.switch_cpus_13.commit.op_class_0::MemRead    213670820     28.17%     89.82% # Class of committed instruction
system.switch_cpus_13.commit.op_class_0::MemWrite     75910950     10.01%     99.83% # Class of committed instruction
system.switch_cpus_13.commit.op_class_0::FloatMemRead      1119652      0.15%     99.97% # Class of committed instruction
system.switch_cpus_13.commit.op_class_0::FloatMemWrite       201116      0.03%    100.00% # Class of committed instruction
system.switch_cpus_13.commit.op_class_0::IprAccess            0      0.00%    100.00% # Class of committed instruction
system.switch_cpus_13.commit.op_class_0::InstPrefetch            0      0.00%    100.00% # Class of committed instruction
system.switch_cpus_13.commit.op_class_0::total    758541113                       # Class of committed instruction
system.switch_cpus_13.commit.bw_lim_events     13695538                       # number cycles where commit BW limit reached
system.switch_cpus_13.rob.rob_reads        1273134333                       # The number of ROB reads
system.switch_cpus_13.rob.rob_writes       1532974876                       # The number of ROB writes
system.switch_cpus_13.timesIdled                 5094                       # Number of times that the entire CPU went into an idle state and unscheduled itself
system.switch_cpus_13.idleCycles               203635                       # Total number of cycles that the CPU has spent unscheduled due to idling
system.switch_cpus_13.committedInsts        499974845                       # Number of Instructions Simulated
system.switch_cpus_13.committedOps          758541113                       # Number of Ops (including micro ops) Simulated
system.switch_cpus_13.cpi                    1.044603                       # CPI: Cycles Per Instruction
system.switch_cpus_13.cpi_total              1.044603                       # CPI: Total CPI of All Threads
system.switch_cpus_13.ipc                    0.957302                       # IPC: Instructions Per Cycle
system.switch_cpus_13.ipc_total              0.957302                       # IPC: Total IPC of All Threads
system.switch_cpus_13.int_regfile_reads    1543821124                       # number of integer regfile reads
system.switch_cpus_13.int_regfile_writes    657446691                       # number of integer regfile writes
system.switch_cpus_13.fp_regfile_reads        3781144                       # number of floating regfile reads
system.switch_cpus_13.fp_regfile_writes       3370665                       # number of floating regfile writes
system.switch_cpus_13.cc_regfile_reads      799713167                       # number of cc regfile reads
system.switch_cpus_13.cc_regfile_writes     397728780                       # number of cc regfile writes
system.switch_cpus_13.misc_regfile_reads    342581622                       # number of misc regfile reads
system.tol3bus.snoop_filter.tot_requests     12783791                       # Total number of requests made to the snoop filter.
system.tol3bus.snoop_filter.hit_single_requests      6393557                       # Number of requests hitting in the snoop filter with a single holder of the requested data.
system.tol3bus.snoop_filter.hit_multi_requests            0                       # Number of requests hitting in the snoop filter with multiple (>1) holders of the requested data.
system.tol3bus.snoop_filter.tot_snoops            334                       # Total number of snoops made to the snoop filter.
system.tol3bus.snoop_filter.hit_single_snoops          334                       # Number of snoops hitting in the snoop filter with a single holder of the requested data.
system.tol3bus.snoop_filter.hit_multi_snoops            0                       # Number of snoops hitting in the snoop filter with multiple (>1) holders of the requested data.
system.tol3bus.pwrStateResidencyTicks::UNDEFINED 179978708250                       # Cumulative time (in ticks) in various power states
system.tol3bus.trans_dist::ReadResp            668634                       # Transaction distribution
system.tol3bus.trans_dist::WritebackDirty      6110757                       # Transaction distribution
system.tol3bus.trans_dist::CleanEvict          316891                       # Transaction distribution
system.tol3bus.trans_dist::UpgradeReq              27                       # Transaction distribution
system.tol3bus.trans_dist::UpgradeResp             27                       # Transaction distribution
system.tol3bus.trans_dist::ReadExReq          5721715                       # Transaction distribution
system.tol3bus.trans_dist::ReadExResp         5721715                       # Transaction distribution
system.tol3bus.trans_dist::ReadSharedReq       668634                       # Transaction distribution
system.tol3bus.pkt_count_system.cpu0.l2cache.mem_side::system.l3.cpu_side      4789689                       # Packet count per connected master and slave (bytes)
system.tol3bus.pkt_count_system.cpu1.l2cache.mem_side::system.l3.cpu_side      4795719                       # Packet count per connected master and slave (bytes)
system.tol3bus.pkt_count_system.cpu2.l2cache.mem_side::system.l3.cpu_side      4790253                       # Packet count per connected master and slave (bytes)
system.tol3bus.pkt_count_system.cpu3.l2cache.mem_side::system.l3.cpu_side      4798506                       # Packet count per connected master and slave (bytes)
system.tol3bus.pkt_count::total              19174167                       # Packet count per connected master and slave (bytes)
system.tol3bus.pkt_size_system.cpu0.l2cache.mem_side::system.l3.cpu_side    199280320                       # Cumulative packet size per connected master and slave (bytes)
system.tol3bus.pkt_size_system.cpu1.l2cache.mem_side::system.l3.cpu_side    199424000                       # Cumulative packet size per connected master and slave (bytes)
system.tol3bus.pkt_size_system.cpu2.l2cache.mem_side::system.l3.cpu_side    199503552                       # Cumulative packet size per connected master and slave (bytes)
system.tol3bus.pkt_size_system.cpu3.l2cache.mem_side::system.l3.cpu_side    199761984                       # Cumulative packet size per connected master and slave (bytes)
system.tol3bus.pkt_size::total              797969856                       # Cumulative packet size per connected master and slave (bytes)
system.tol3bus.snoops                           34233                       # Total snoops (count)
system.tol3bus.snoopTraffic                   2100928                       # Total snoop traffic (bytes)
system.tol3bus.snoop_fanout::samples          6424609                       # Request fanout histogram
system.tol3bus.snoop_fanout::mean            0.000052                       # Request fanout histogram
system.tol3bus.snoop_fanout::stdev           0.007210                       # Request fanout histogram
system.tol3bus.snoop_fanout::underflows             0      0.00%      0.00% # Request fanout histogram
system.tol3bus.snoop_fanout::0                6424275     99.99%     99.99% # Request fanout histogram
system.tol3bus.snoop_fanout::1                    334      0.01%    100.00% # Request fanout histogram
system.tol3bus.snoop_fanout::2                      0      0.00%    100.00% # Request fanout histogram
system.tol3bus.snoop_fanout::3                      0      0.00%    100.00% # Request fanout histogram
system.tol3bus.snoop_fanout::4                      0      0.00%    100.00% # Request fanout histogram
system.tol3bus.snoop_fanout::overflows              0      0.00%    100.00% # Request fanout histogram
system.tol3bus.snoop_fanout::min_value              0                       # Request fanout histogram
system.tol3bus.snoop_fanout::max_value              1                       # Request fanout histogram
system.tol3bus.snoop_fanout::total            6424609                       # Request fanout histogram
system.tol3bus.reqLayer0.occupancy         6234912750                       # Layer occupancy (ticks)
system.tol3bus.reqLayer0.utilization              4.8                       # Layer utilization (%)
system.tol3bus.respLayer0.occupancy        1197415318                       # Layer occupancy (ticks)
system.tol3bus.respLayer0.utilization             0.9                       # Layer utilization (%)
system.tol3bus.respLayer1.occupancy        1198898539                       # Layer occupancy (ticks)
system.tol3bus.respLayer1.utilization             0.9                       # Layer utilization (%)
system.tol3bus.respLayer2.occupancy        1197603870                       # Layer occupancy (ticks)
system.tol3bus.respLayer2.utilization             0.9                       # Layer utilization (%)
system.tol3bus.respLayer3.occupancy        1199530757                       # Layer occupancy (ticks)
system.tol3bus.respLayer3.utilization             0.9                       # Layer utilization (%)

---------- End Simulation Statistics   ----------
