
---------- Begin Simulation Statistics ----------
sim_seconds                                  0.379391                       # Number of seconds simulated
sim_ticks                                379391190750                       # Number of ticks simulated
final_tick                               437218964500                       # Number of ticks from beginning of simulation (restored from checkpoints and never reset)
sim_freq                                 1000000000000                       # Frequency of simulated ticks
host_inst_rate                                  71922                       # Simulator instruction rate (inst/s)
host_op_rate                                   142375                       # Simulator op (including micro ops) rate (op/s)
host_tick_rate                               11375596                       # Simulator tick rate (ticks/s)
host_mem_usage                               18149332                       # Number of bytes of host memory used
host_seconds                                 33351.33                       # Real time elapsed on the host
sim_insts                                  2398700082                       # Number of instructions simulated
sim_ops                                    4748408528                       # Number of ops (including micro ops) simulated
system.voltage_domain.voltage                       1                       # Voltage in Volts
system.clk_domain.clock                          1000                       # Clock period in ticks
system.mem_ctrls0.pwrStateResidencyTicks::UNDEFINED 437218964500                       # Cumulative time (in ticks) in various power states
system.mem_ctrls0.bytes_read::.switch_cpus_10.inst       631296                       # Number of bytes read from this memory
system.mem_ctrls0.bytes_read::.switch_cpus_10.data     60622464                       # Number of bytes read from this memory
system.mem_ctrls0.bytes_read::.switch_cpus_11.inst       653376                       # Number of bytes read from this memory
system.mem_ctrls0.bytes_read::.switch_cpus_11.data     60690560                       # Number of bytes read from this memory
system.mem_ctrls0.bytes_read::.switch_cpus_12.inst       653184                       # Number of bytes read from this memory
system.mem_ctrls0.bytes_read::.switch_cpus_12.data     60613696                       # Number of bytes read from this memory
system.mem_ctrls0.bytes_read::.switch_cpus_13.inst       639808                       # Number of bytes read from this memory
system.mem_ctrls0.bytes_read::.switch_cpus_13.data     60642944                       # Number of bytes read from this memory
system.mem_ctrls0.bytes_read::total         245147328                       # Number of bytes read from this memory
system.mem_ctrls0.bytes_inst_read::.switch_cpus_10.inst       631296                       # Number of instructions bytes read from this memory
system.mem_ctrls0.bytes_inst_read::.switch_cpus_11.inst       653376                       # Number of instructions bytes read from this memory
system.mem_ctrls0.bytes_inst_read::.switch_cpus_12.inst       653184                       # Number of instructions bytes read from this memory
system.mem_ctrls0.bytes_inst_read::.switch_cpus_13.inst       639808                       # Number of instructions bytes read from this memory
system.mem_ctrls0.bytes_inst_read::total      2577664                       # Number of instructions bytes read from this memory
system.mem_ctrls0.bytes_written::.writebacks     97455104                       # Number of bytes written to this memory
system.mem_ctrls0.bytes_written::total       97455104                       # Number of bytes written to this memory
system.mem_ctrls0.num_reads::.switch_cpus_10.inst         9864                       # Number of read requests responded to by this memory
system.mem_ctrls0.num_reads::.switch_cpus_10.data       947226                       # Number of read requests responded to by this memory
system.mem_ctrls0.num_reads::.switch_cpus_11.inst        10209                       # Number of read requests responded to by this memory
system.mem_ctrls0.num_reads::.switch_cpus_11.data       948290                       # Number of read requests responded to by this memory
system.mem_ctrls0.num_reads::.switch_cpus_12.inst        10206                       # Number of read requests responded to by this memory
system.mem_ctrls0.num_reads::.switch_cpus_12.data       947089                       # Number of read requests responded to by this memory
system.mem_ctrls0.num_reads::.switch_cpus_13.inst         9997                       # Number of read requests responded to by this memory
system.mem_ctrls0.num_reads::.switch_cpus_13.data       947546                       # Number of read requests responded to by this memory
system.mem_ctrls0.num_reads::total            3830427                       # Number of read requests responded to by this memory
system.mem_ctrls0.num_writes::.writebacks      1522736                       # Number of write requests responded to by this memory
system.mem_ctrls0.num_writes::total           1522736                       # Number of write requests responded to by this memory
system.mem_ctrls0.bw_read::.switch_cpus_10.inst      1663971                       # Total read bandwidth from this memory (bytes/s)
system.mem_ctrls0.bw_read::.switch_cpus_10.data    159788802                       # Total read bandwidth from this memory (bytes/s)
system.mem_ctrls0.bw_read::.switch_cpus_11.inst      1722170                       # Total read bandwidth from this memory (bytes/s)
system.mem_ctrls0.bw_read::.switch_cpus_11.data    159968290                       # Total read bandwidth from this memory (bytes/s)
system.mem_ctrls0.bw_read::.switch_cpus_12.inst      1721664                       # Total read bandwidth from this memory (bytes/s)
system.mem_ctrls0.bw_read::.switch_cpus_12.data    159765692                       # Total read bandwidth from this memory (bytes/s)
system.mem_ctrls0.bw_read::.switch_cpus_13.inst      1686407                       # Total read bandwidth from this memory (bytes/s)
system.mem_ctrls0.bw_read::.switch_cpus_13.data    159842784                       # Total read bandwidth from this memory (bytes/s)
system.mem_ctrls0.bw_read::total            646159779                       # Total read bandwidth from this memory (bytes/s)
system.mem_ctrls0.bw_inst_read::.switch_cpus_10.inst      1663971                       # Instruction read bandwidth from this memory (bytes/s)
system.mem_ctrls0.bw_inst_read::.switch_cpus_11.inst      1722170                       # Instruction read bandwidth from this memory (bytes/s)
system.mem_ctrls0.bw_inst_read::.switch_cpus_12.inst      1721664                       # Instruction read bandwidth from this memory (bytes/s)
system.mem_ctrls0.bw_inst_read::.switch_cpus_13.inst      1686407                       # Instruction read bandwidth from this memory (bytes/s)
system.mem_ctrls0.bw_inst_read::total         6794212                       # Instruction read bandwidth from this memory (bytes/s)
system.mem_ctrls0.bw_write::.writebacks     256872343                       # Write bandwidth from this memory (bytes/s)
system.mem_ctrls0.bw_write::total           256872343                       # Write bandwidth from this memory (bytes/s)
system.mem_ctrls0.bw_total::.writebacks     256872343                       # Total bandwidth to/from this memory (bytes/s)
system.mem_ctrls0.bw_total::.switch_cpus_10.inst      1663971                       # Total bandwidth to/from this memory (bytes/s)
system.mem_ctrls0.bw_total::.switch_cpus_10.data    159788802                       # Total bandwidth to/from this memory (bytes/s)
system.mem_ctrls0.bw_total::.switch_cpus_11.inst      1722170                       # Total bandwidth to/from this memory (bytes/s)
system.mem_ctrls0.bw_total::.switch_cpus_11.data    159968290                       # Total bandwidth to/from this memory (bytes/s)
system.mem_ctrls0.bw_total::.switch_cpus_12.inst      1721664                       # Total bandwidth to/from this memory (bytes/s)
system.mem_ctrls0.bw_total::.switch_cpus_12.data    159765692                       # Total bandwidth to/from this memory (bytes/s)
system.mem_ctrls0.bw_total::.switch_cpus_13.inst      1686407                       # Total bandwidth to/from this memory (bytes/s)
system.mem_ctrls0.bw_total::.switch_cpus_13.data    159842784                       # Total bandwidth to/from this memory (bytes/s)
system.mem_ctrls0.bw_total::total           903032122                       # Total bandwidth to/from this memory (bytes/s)
system.mem_ctrls0.avgPriority_.writebacks::samples   1522736.00                       # Average QoS priority value for accepted requests
system.mem_ctrls0.avgPriority_.switch_cpus_10.inst::samples      9864.00                       # Average QoS priority value for accepted requests
system.mem_ctrls0.avgPriority_.switch_cpus_10.data::samples    947102.00                       # Average QoS priority value for accepted requests
system.mem_ctrls0.avgPriority_.switch_cpus_11.inst::samples     10209.00                       # Average QoS priority value for accepted requests
system.mem_ctrls0.avgPriority_.switch_cpus_11.data::samples    948171.00                       # Average QoS priority value for accepted requests
system.mem_ctrls0.avgPriority_.switch_cpus_12.inst::samples     10206.00                       # Average QoS priority value for accepted requests
system.mem_ctrls0.avgPriority_.switch_cpus_12.data::samples    946976.00                       # Average QoS priority value for accepted requests
system.mem_ctrls0.avgPriority_.switch_cpus_13.inst::samples      9997.00                       # Average QoS priority value for accepted requests
system.mem_ctrls0.avgPriority_.switch_cpus_13.data::samples    947433.00                       # Average QoS priority value for accepted requests
system.mem_ctrls0.priorityMinLatency     0.000000017860                       # per QoS priority minimum request to response latency (s)
system.mem_ctrls0.priorityMaxLatency     0.032480643460                       # per QoS priority maximum request to response latency (s)
system.mem_ctrls0.numReadWriteTurnArounds        88169                       # Number of turnarounds from READ to WRITE
system.mem_ctrls0.numWriteReadTurnArounds        88170                       # Number of turnarounds from WRITE to READ
system.mem_ctrls0.numStayReadState            9009138                       # Number of times bus staying in READ state
system.mem_ctrls0.numStayWriteState           1435276                       # Number of times bus staying in WRITE state
system.mem_ctrls0.readReqs                    3830427                       # Number of read requests accepted
system.mem_ctrls0.writeReqs                   1522736                       # Number of write requests accepted
system.mem_ctrls0.readBursts                  3830427                       # Number of DRAM read bursts, including those serviced by the write queue
system.mem_ctrls0.writeBursts                 1522736                       # Number of DRAM write bursts, including those merged in the write queue
system.mem_ctrls0.bytesReadDRAM             245117312                       # Total number of bytes read from DRAM
system.mem_ctrls0.bytesReadWrQ                  30016                       # Total number of bytes read from write queue
system.mem_ctrls0.bytesWritten               97451456                       # Total number of bytes written to DRAM
system.mem_ctrls0.bytesReadSys              245147328                       # Total read bytes from the system interface side
system.mem_ctrls0.bytesWrittenSys            97455104                       # Total written bytes from the system interface side
system.mem_ctrls0.servicedByWrQ                   469                       # Number of DRAM read bursts serviced by the write queue
system.mem_ctrls0.mergedWrBursts                    0                       # Number of DRAM write bursts merged with an existing one
system.mem_ctrls0.neitherReadNorWriteReqs            0                       # Number of requests that are neither read nor write
system.mem_ctrls0.perBankRdBursts::0           120747                       # Per bank write bursts
system.mem_ctrls0.perBankRdBursts::1           117837                       # Per bank write bursts
system.mem_ctrls0.perBankRdBursts::2           119588                       # Per bank write bursts
system.mem_ctrls0.perBankRdBursts::3           118204                       # Per bank write bursts
system.mem_ctrls0.perBankRdBursts::4           120181                       # Per bank write bursts
system.mem_ctrls0.perBankRdBursts::5           121104                       # Per bank write bursts
system.mem_ctrls0.perBankRdBursts::6           116399                       # Per bank write bursts
system.mem_ctrls0.perBankRdBursts::7           118612                       # Per bank write bursts
system.mem_ctrls0.perBankRdBursts::8           118904                       # Per bank write bursts
system.mem_ctrls0.perBankRdBursts::9           118933                       # Per bank write bursts
system.mem_ctrls0.perBankRdBursts::10          118051                       # Per bank write bursts
system.mem_ctrls0.perBankRdBursts::11          122004                       # Per bank write bursts
system.mem_ctrls0.perBankRdBursts::12          121781                       # Per bank write bursts
system.mem_ctrls0.perBankRdBursts::13          119675                       # Per bank write bursts
system.mem_ctrls0.perBankRdBursts::14          120285                       # Per bank write bursts
system.mem_ctrls0.perBankRdBursts::15          120131                       # Per bank write bursts
system.mem_ctrls0.perBankRdBursts::16          122779                       # Per bank write bursts
system.mem_ctrls0.perBankRdBursts::17          122135                       # Per bank write bursts
system.mem_ctrls0.perBankRdBursts::18          115546                       # Per bank write bursts
system.mem_ctrls0.perBankRdBursts::19          120250                       # Per bank write bursts
system.mem_ctrls0.perBankRdBursts::20          120941                       # Per bank write bursts
system.mem_ctrls0.perBankRdBursts::21          119757                       # Per bank write bursts
system.mem_ctrls0.perBankRdBursts::22          117446                       # Per bank write bursts
system.mem_ctrls0.perBankRdBursts::23          118190                       # Per bank write bursts
system.mem_ctrls0.perBankRdBursts::24          120538                       # Per bank write bursts
system.mem_ctrls0.perBankRdBursts::25          120490                       # Per bank write bursts
system.mem_ctrls0.perBankRdBursts::26          116851                       # Per bank write bursts
system.mem_ctrls0.perBankRdBursts::27          122197                       # Per bank write bursts
system.mem_ctrls0.perBankRdBursts::28          120856                       # Per bank write bursts
system.mem_ctrls0.perBankRdBursts::29          121574                       # Per bank write bursts
system.mem_ctrls0.perBankRdBursts::30          118719                       # Per bank write bursts
system.mem_ctrls0.perBankRdBursts::31          119253                       # Per bank write bursts
system.mem_ctrls0.perBankWrBursts::0            47550                       # Per bank write bursts
system.mem_ctrls0.perBankWrBursts::1            46059                       # Per bank write bursts
system.mem_ctrls0.perBankWrBursts::2            46992                       # Per bank write bursts
system.mem_ctrls0.perBankWrBursts::3            46820                       # Per bank write bursts
system.mem_ctrls0.perBankWrBursts::4            47669                       # Per bank write bursts
system.mem_ctrls0.perBankWrBursts::5            47530                       # Per bank write bursts
system.mem_ctrls0.perBankWrBursts::6            47055                       # Per bank write bursts
system.mem_ctrls0.perBankWrBursts::7            47481                       # Per bank write bursts
system.mem_ctrls0.perBankWrBursts::8            47077                       # Per bank write bursts
system.mem_ctrls0.perBankWrBursts::9            47212                       # Per bank write bursts
system.mem_ctrls0.perBankWrBursts::10           47945                       # Per bank write bursts
system.mem_ctrls0.perBankWrBursts::11           47149                       # Per bank write bursts
system.mem_ctrls0.perBankWrBursts::12           48496                       # Per bank write bursts
system.mem_ctrls0.perBankWrBursts::13           47237                       # Per bank write bursts
system.mem_ctrls0.perBankWrBursts::14           48491                       # Per bank write bursts
system.mem_ctrls0.perBankWrBursts::15           47985                       # Per bank write bursts
system.mem_ctrls0.perBankWrBursts::16           48320                       # Per bank write bursts
system.mem_ctrls0.perBankWrBursts::17           47225                       # Per bank write bursts
system.mem_ctrls0.perBankWrBursts::18           45909                       # Per bank write bursts
system.mem_ctrls0.perBankWrBursts::19           46844                       # Per bank write bursts
system.mem_ctrls0.perBankWrBursts::20           48682                       # Per bank write bursts
system.mem_ctrls0.perBankWrBursts::21           47118                       # Per bank write bursts
system.mem_ctrls0.perBankWrBursts::22           47906                       # Per bank write bursts
system.mem_ctrls0.perBankWrBursts::23           47589                       # Per bank write bursts
system.mem_ctrls0.perBankWrBursts::24           47431                       # Per bank write bursts
system.mem_ctrls0.perBankWrBursts::25           47965                       # Per bank write bursts
system.mem_ctrls0.perBankWrBursts::26           47699                       # Per bank write bursts
system.mem_ctrls0.perBankWrBursts::27           49076                       # Per bank write bursts
system.mem_ctrls0.perBankWrBursts::28           48935                       # Per bank write bursts
system.mem_ctrls0.perBankWrBursts::29           48175                       # Per bank write bursts
system.mem_ctrls0.perBankWrBursts::30           47241                       # Per bank write bursts
system.mem_ctrls0.perBankWrBursts::31           47816                       # Per bank write bursts
system.mem_ctrls0.numRdRetry                        0                       # Number of times read queue was full causing retry
system.mem_ctrls0.numWrRetry                        0                       # Number of times write queue was full causing retry
system.mem_ctrls0.totGap                 379391135499                       # Total gap between requests
system.mem_ctrls0.readPktSize::0                    0                       # Read request sizes (log2)
system.mem_ctrls0.readPktSize::1                    0                       # Read request sizes (log2)
system.mem_ctrls0.readPktSize::2                    0                       # Read request sizes (log2)
system.mem_ctrls0.readPktSize::3                    0                       # Read request sizes (log2)
system.mem_ctrls0.readPktSize::4                    0                       # Read request sizes (log2)
system.mem_ctrls0.readPktSize::5                    0                       # Read request sizes (log2)
system.mem_ctrls0.readPktSize::6              3830427                       # Read request sizes (log2)
system.mem_ctrls0.writePktSize::0                   0                       # Write request sizes (log2)
system.mem_ctrls0.writePktSize::1                   0                       # Write request sizes (log2)
system.mem_ctrls0.writePktSize::2                   0                       # Write request sizes (log2)
system.mem_ctrls0.writePktSize::3                   0                       # Write request sizes (log2)
system.mem_ctrls0.writePktSize::4                   0                       # Write request sizes (log2)
system.mem_ctrls0.writePktSize::5                   0                       # Write request sizes (log2)
system.mem_ctrls0.writePktSize::6             1522736                       # Write request sizes (log2)
system.mem_ctrls0.rdQLenPdf::0                2538123                       # What read queue length does an incoming req see
system.mem_ctrls0.rdQLenPdf::1                 935814                       # What read queue length does an incoming req see
system.mem_ctrls0.rdQLenPdf::2                 261049                       # What read queue length does an incoming req see
system.mem_ctrls0.rdQLenPdf::3                  63819                       # What read queue length does an incoming req see
system.mem_ctrls0.rdQLenPdf::4                  16026                       # What read queue length does an incoming req see
system.mem_ctrls0.rdQLenPdf::5                   6753                       # What read queue length does an incoming req see
system.mem_ctrls0.rdQLenPdf::6                   3662                       # What read queue length does an incoming req see
system.mem_ctrls0.rdQLenPdf::7                   2172                       # What read queue length does an incoming req see
system.mem_ctrls0.rdQLenPdf::8                   1242                       # What read queue length does an incoming req see
system.mem_ctrls0.rdQLenPdf::9                    656                       # What read queue length does an incoming req see
system.mem_ctrls0.rdQLenPdf::10                   333                       # What read queue length does an incoming req see
system.mem_ctrls0.rdQLenPdf::11                   180                       # What read queue length does an incoming req see
system.mem_ctrls0.rdQLenPdf::12                    97                       # What read queue length does an incoming req see
system.mem_ctrls0.rdQLenPdf::13                    24                       # What read queue length does an incoming req see
system.mem_ctrls0.rdQLenPdf::14                     8                       # What read queue length does an incoming req see
system.mem_ctrls0.rdQLenPdf::15                     0                       # What read queue length does an incoming req see
system.mem_ctrls0.rdQLenPdf::16                     0                       # What read queue length does an incoming req see
system.mem_ctrls0.rdQLenPdf::17                     0                       # What read queue length does an incoming req see
system.mem_ctrls0.rdQLenPdf::18                     0                       # What read queue length does an incoming req see
system.mem_ctrls0.rdQLenPdf::19                     0                       # What read queue length does an incoming req see
system.mem_ctrls0.rdQLenPdf::20                     0                       # What read queue length does an incoming req see
system.mem_ctrls0.rdQLenPdf::21                     0                       # What read queue length does an incoming req see
system.mem_ctrls0.rdQLenPdf::22                     0                       # What read queue length does an incoming req see
system.mem_ctrls0.rdQLenPdf::23                     0                       # What read queue length does an incoming req see
system.mem_ctrls0.rdQLenPdf::24                     0                       # What read queue length does an incoming req see
system.mem_ctrls0.rdQLenPdf::25                     0                       # What read queue length does an incoming req see
system.mem_ctrls0.rdQLenPdf::26                     0                       # What read queue length does an incoming req see
system.mem_ctrls0.rdQLenPdf::27                     0                       # What read queue length does an incoming req see
system.mem_ctrls0.rdQLenPdf::28                     0                       # What read queue length does an incoming req see
system.mem_ctrls0.rdQLenPdf::29                     0                       # What read queue length does an incoming req see
system.mem_ctrls0.rdQLenPdf::30                     0                       # What read queue length does an incoming req see
system.mem_ctrls0.rdQLenPdf::31                     0                       # What read queue length does an incoming req see
system.mem_ctrls0.rdQLenPdf::32                     0                       # What read queue length does an incoming req see
system.mem_ctrls0.rdQLenPdf::33                     0                       # What read queue length does an incoming req see
system.mem_ctrls0.rdQLenPdf::34                     0                       # What read queue length does an incoming req see
system.mem_ctrls0.rdQLenPdf::35                     0                       # What read queue length does an incoming req see
system.mem_ctrls0.rdQLenPdf::36                     0                       # What read queue length does an incoming req see
system.mem_ctrls0.rdQLenPdf::37                     0                       # What read queue length does an incoming req see
system.mem_ctrls0.rdQLenPdf::38                     0                       # What read queue length does an incoming req see
system.mem_ctrls0.rdQLenPdf::39                     0                       # What read queue length does an incoming req see
system.mem_ctrls0.rdQLenPdf::40                     0                       # What read queue length does an incoming req see
system.mem_ctrls0.rdQLenPdf::41                     0                       # What read queue length does an incoming req see
system.mem_ctrls0.rdQLenPdf::42                     0                       # What read queue length does an incoming req see
system.mem_ctrls0.rdQLenPdf::43                     0                       # What read queue length does an incoming req see
system.mem_ctrls0.rdQLenPdf::44                     0                       # What read queue length does an incoming req see
system.mem_ctrls0.rdQLenPdf::45                     0                       # What read queue length does an incoming req see
system.mem_ctrls0.rdQLenPdf::46                     0                       # What read queue length does an incoming req see
system.mem_ctrls0.rdQLenPdf::47                     0                       # What read queue length does an incoming req see
system.mem_ctrls0.rdQLenPdf::48                     0                       # What read queue length does an incoming req see
system.mem_ctrls0.rdQLenPdf::49                     0                       # What read queue length does an incoming req see
system.mem_ctrls0.rdQLenPdf::50                     0                       # What read queue length does an incoming req see
system.mem_ctrls0.rdQLenPdf::51                     0                       # What read queue length does an incoming req see
system.mem_ctrls0.rdQLenPdf::52                     0                       # What read queue length does an incoming req see
system.mem_ctrls0.rdQLenPdf::53                     0                       # What read queue length does an incoming req see
system.mem_ctrls0.rdQLenPdf::54                     0                       # What read queue length does an incoming req see
system.mem_ctrls0.rdQLenPdf::55                     0                       # What read queue length does an incoming req see
system.mem_ctrls0.rdQLenPdf::56                     0                       # What read queue length does an incoming req see
system.mem_ctrls0.rdQLenPdf::57                     0                       # What read queue length does an incoming req see
system.mem_ctrls0.rdQLenPdf::58                     0                       # What read queue length does an incoming req see
system.mem_ctrls0.rdQLenPdf::59                     0                       # What read queue length does an incoming req see
system.mem_ctrls0.rdQLenPdf::60                     0                       # What read queue length does an incoming req see
system.mem_ctrls0.rdQLenPdf::61                     0                       # What read queue length does an incoming req see
system.mem_ctrls0.rdQLenPdf::62                     0                       # What read queue length does an incoming req see
system.mem_ctrls0.rdQLenPdf::63                     0                       # What read queue length does an incoming req see
system.mem_ctrls0.wrQLenPdf::0                      1                       # What write queue length does an incoming req see
system.mem_ctrls0.wrQLenPdf::1                      1                       # What write queue length does an incoming req see
system.mem_ctrls0.wrQLenPdf::2                      1                       # What write queue length does an incoming req see
system.mem_ctrls0.wrQLenPdf::3                      1                       # What write queue length does an incoming req see
system.mem_ctrls0.wrQLenPdf::4                      1                       # What write queue length does an incoming req see
system.mem_ctrls0.wrQLenPdf::5                      1                       # What write queue length does an incoming req see
system.mem_ctrls0.wrQLenPdf::6                      1                       # What write queue length does an incoming req see
system.mem_ctrls0.wrQLenPdf::7                      1                       # What write queue length does an incoming req see
system.mem_ctrls0.wrQLenPdf::8                      1                       # What write queue length does an incoming req see
system.mem_ctrls0.wrQLenPdf::9                      1                       # What write queue length does an incoming req see
system.mem_ctrls0.wrQLenPdf::10                     1                       # What write queue length does an incoming req see
system.mem_ctrls0.wrQLenPdf::11                     1                       # What write queue length does an incoming req see
system.mem_ctrls0.wrQLenPdf::12                     1                       # What write queue length does an incoming req see
system.mem_ctrls0.wrQLenPdf::13                     1                       # What write queue length does an incoming req see
system.mem_ctrls0.wrQLenPdf::14                     1                       # What write queue length does an incoming req see
system.mem_ctrls0.wrQLenPdf::15                     1                       # What write queue length does an incoming req see
system.mem_ctrls0.wrQLenPdf::16                     1                       # What write queue length does an incoming req see
system.mem_ctrls0.wrQLenPdf::17                     1                       # What write queue length does an incoming req see
system.mem_ctrls0.wrQLenPdf::18                     1                       # What write queue length does an incoming req see
system.mem_ctrls0.wrQLenPdf::19                     1                       # What write queue length does an incoming req see
system.mem_ctrls0.wrQLenPdf::20                     1                       # What write queue length does an incoming req see
system.mem_ctrls0.wrQLenPdf::21                     1                       # What write queue length does an incoming req see
system.mem_ctrls0.wrQLenPdf::22                     1                       # What write queue length does an incoming req see
system.mem_ctrls0.wrQLenPdf::23                     1                       # What write queue length does an incoming req see
system.mem_ctrls0.wrQLenPdf::24                     1                       # What write queue length does an incoming req see
system.mem_ctrls0.wrQLenPdf::25                     1                       # What write queue length does an incoming req see
system.mem_ctrls0.wrQLenPdf::26                     1                       # What write queue length does an incoming req see
system.mem_ctrls0.wrQLenPdf::27                     1                       # What write queue length does an incoming req see
system.mem_ctrls0.wrQLenPdf::28                     1                       # What write queue length does an incoming req see
system.mem_ctrls0.wrQLenPdf::29                     1                       # What write queue length does an incoming req see
system.mem_ctrls0.wrQLenPdf::30                     1                       # What write queue length does an incoming req see
system.mem_ctrls0.wrQLenPdf::31                     1                       # What write queue length does an incoming req see
system.mem_ctrls0.wrQLenPdf::32                     1                       # What write queue length does an incoming req see
system.mem_ctrls0.wrQLenPdf::33                     1                       # What write queue length does an incoming req see
system.mem_ctrls0.wrQLenPdf::34                     1                       # What write queue length does an incoming req see
system.mem_ctrls0.wrQLenPdf::35                     1                       # What write queue length does an incoming req see
system.mem_ctrls0.wrQLenPdf::36                     1                       # What write queue length does an incoming req see
system.mem_ctrls0.wrQLenPdf::37                     1                       # What write queue length does an incoming req see
system.mem_ctrls0.wrQLenPdf::38                     1                       # What write queue length does an incoming req see
system.mem_ctrls0.wrQLenPdf::39                     1                       # What write queue length does an incoming req see
system.mem_ctrls0.wrQLenPdf::40                     1                       # What write queue length does an incoming req see
system.mem_ctrls0.wrQLenPdf::41                     1                       # What write queue length does an incoming req see
system.mem_ctrls0.wrQLenPdf::42                     1                       # What write queue length does an incoming req see
system.mem_ctrls0.wrQLenPdf::43                     1                       # What write queue length does an incoming req see
system.mem_ctrls0.wrQLenPdf::44                     1                       # What write queue length does an incoming req see
system.mem_ctrls0.wrQLenPdf::45                     1                       # What write queue length does an incoming req see
system.mem_ctrls0.wrQLenPdf::46                     1                       # What write queue length does an incoming req see
system.mem_ctrls0.wrQLenPdf::47                 45808                       # What write queue length does an incoming req see
system.mem_ctrls0.wrQLenPdf::48                 49247                       # What write queue length does an incoming req see
system.mem_ctrls0.wrQLenPdf::49                 75569                       # What write queue length does an incoming req see
system.mem_ctrls0.wrQLenPdf::50                 85457                       # What write queue length does an incoming req see
system.mem_ctrls0.wrQLenPdf::51                 88245                       # What write queue length does an incoming req see
system.mem_ctrls0.wrQLenPdf::52                 89463                       # What write queue length does an incoming req see
system.mem_ctrls0.wrQLenPdf::53                 90130                       # What write queue length does an incoming req see
system.mem_ctrls0.wrQLenPdf::54                 90379                       # What write queue length does an incoming req see
system.mem_ctrls0.wrQLenPdf::55                 90535                       # What write queue length does an incoming req see
system.mem_ctrls0.wrQLenPdf::56                 90594                       # What write queue length does an incoming req see
system.mem_ctrls0.wrQLenPdf::57                 90540                       # What write queue length does an incoming req see
system.mem_ctrls0.wrQLenPdf::58                 90512                       # What write queue length does an incoming req see
system.mem_ctrls0.wrQLenPdf::59                 90792                       # What write queue length does an incoming req see
system.mem_ctrls0.wrQLenPdf::60                 91121                       # What write queue length does an incoming req see
system.mem_ctrls0.wrQLenPdf::61                 92161                       # What write queue length does an incoming req see
system.mem_ctrls0.wrQLenPdf::62                 90934                       # What write queue length does an incoming req see
system.mem_ctrls0.wrQLenPdf::63                 89772                       # What write queue length does an incoming req see
system.mem_ctrls0.wrQLenPdf::64                 89537                       # What write queue length does an incoming req see
system.mem_ctrls0.wrQLenPdf::65                   923                       # What write queue length does an incoming req see
system.mem_ctrls0.wrQLenPdf::66                   383                       # What write queue length does an incoming req see
system.mem_ctrls0.wrQLenPdf::67                   205                       # What write queue length does an incoming req see
system.mem_ctrls0.wrQLenPdf::68                   121                       # What write queue length does an incoming req see
system.mem_ctrls0.wrQLenPdf::69                    81                       # What write queue length does an incoming req see
system.mem_ctrls0.wrQLenPdf::70                    59                       # What write queue length does an incoming req see
system.mem_ctrls0.wrQLenPdf::71                    39                       # What write queue length does an incoming req see
system.mem_ctrls0.wrQLenPdf::72                    24                       # What write queue length does an incoming req see
system.mem_ctrls0.wrQLenPdf::73                    20                       # What write queue length does an incoming req see
system.mem_ctrls0.wrQLenPdf::74                     9                       # What write queue length does an incoming req see
system.mem_ctrls0.wrQLenPdf::75                     6                       # What write queue length does an incoming req see
system.mem_ctrls0.wrQLenPdf::76                     6                       # What write queue length does an incoming req see
system.mem_ctrls0.wrQLenPdf::77                     4                       # What write queue length does an incoming req see
system.mem_ctrls0.wrQLenPdf::78                     6                       # What write queue length does an incoming req see
system.mem_ctrls0.wrQLenPdf::79                     3                       # What write queue length does an incoming req see
system.mem_ctrls0.wrQLenPdf::80                     2                       # What write queue length does an incoming req see
system.mem_ctrls0.wrQLenPdf::81                     2                       # What write queue length does an incoming req see
system.mem_ctrls0.wrQLenPdf::82                     0                       # What write queue length does an incoming req see
system.mem_ctrls0.wrQLenPdf::83                     0                       # What write queue length does an incoming req see
system.mem_ctrls0.wrQLenPdf::84                     0                       # What write queue length does an incoming req see
system.mem_ctrls0.wrQLenPdf::85                     0                       # What write queue length does an incoming req see
system.mem_ctrls0.wrQLenPdf::86                     0                       # What write queue length does an incoming req see
system.mem_ctrls0.wrQLenPdf::87                     0                       # What write queue length does an incoming req see
system.mem_ctrls0.wrQLenPdf::88                     0                       # What write queue length does an incoming req see
system.mem_ctrls0.wrQLenPdf::89                     0                       # What write queue length does an incoming req see
system.mem_ctrls0.wrQLenPdf::90                     0                       # What write queue length does an incoming req see
system.mem_ctrls0.wrQLenPdf::91                     0                       # What write queue length does an incoming req see
system.mem_ctrls0.wrQLenPdf::92                     0                       # What write queue length does an incoming req see
system.mem_ctrls0.wrQLenPdf::93                     0                       # What write queue length does an incoming req see
system.mem_ctrls0.wrQLenPdf::94                     0                       # What write queue length does an incoming req see
system.mem_ctrls0.wrQLenPdf::95                     0                       # What write queue length does an incoming req see
system.mem_ctrls0.wrQLenPdf::96                     0                       # What write queue length does an incoming req see
system.mem_ctrls0.wrQLenPdf::97                     0                       # What write queue length does an incoming req see
system.mem_ctrls0.wrQLenPdf::98                     0                       # What write queue length does an incoming req see
system.mem_ctrls0.wrQLenPdf::99                     0                       # What write queue length does an incoming req see
system.mem_ctrls0.wrQLenPdf::100                    0                       # What write queue length does an incoming req see
system.mem_ctrls0.wrQLenPdf::101                    0                       # What write queue length does an incoming req see
system.mem_ctrls0.wrQLenPdf::102                    0                       # What write queue length does an incoming req see
system.mem_ctrls0.wrQLenPdf::103                    0                       # What write queue length does an incoming req see
system.mem_ctrls0.wrQLenPdf::104                    0                       # What write queue length does an incoming req see
system.mem_ctrls0.wrQLenPdf::105                    0                       # What write queue length does an incoming req see
system.mem_ctrls0.wrQLenPdf::106                    0                       # What write queue length does an incoming req see
system.mem_ctrls0.wrQLenPdf::107                    0                       # What write queue length does an incoming req see
system.mem_ctrls0.wrQLenPdf::108                    0                       # What write queue length does an incoming req see
system.mem_ctrls0.wrQLenPdf::109                    0                       # What write queue length does an incoming req see
system.mem_ctrls0.wrQLenPdf::110                    0                       # What write queue length does an incoming req see
system.mem_ctrls0.wrQLenPdf::111                    0                       # What write queue length does an incoming req see
system.mem_ctrls0.wrQLenPdf::112                    0                       # What write queue length does an incoming req see
system.mem_ctrls0.wrQLenPdf::113                    0                       # What write queue length does an incoming req see
system.mem_ctrls0.wrQLenPdf::114                    0                       # What write queue length does an incoming req see
system.mem_ctrls0.wrQLenPdf::115                    0                       # What write queue length does an incoming req see
system.mem_ctrls0.wrQLenPdf::116                    0                       # What write queue length does an incoming req see
system.mem_ctrls0.wrQLenPdf::117                    0                       # What write queue length does an incoming req see
system.mem_ctrls0.wrQLenPdf::118                    0                       # What write queue length does an incoming req see
system.mem_ctrls0.wrQLenPdf::119                    0                       # What write queue length does an incoming req see
system.mem_ctrls0.wrQLenPdf::120                    0                       # What write queue length does an incoming req see
system.mem_ctrls0.wrQLenPdf::121                    0                       # What write queue length does an incoming req see
system.mem_ctrls0.wrQLenPdf::122                    0                       # What write queue length does an incoming req see
system.mem_ctrls0.wrQLenPdf::123                    0                       # What write queue length does an incoming req see
system.mem_ctrls0.wrQLenPdf::124                    0                       # What write queue length does an incoming req see
system.mem_ctrls0.wrQLenPdf::125                    0                       # What write queue length does an incoming req see
system.mem_ctrls0.wrQLenPdf::126                    0                       # What write queue length does an incoming req see
system.mem_ctrls0.wrQLenPdf::127                    0                       # What write queue length does an incoming req see
system.mem_ctrls0.bytesPerActivate::samples      2129965                       # Bytes accessed per row activation
system.mem_ctrls0.bytesPerActivate::mean   160.832540                       # Bytes accessed per row activation
system.mem_ctrls0.bytesPerActivate::gmean   114.877610                       # Bytes accessed per row activation
system.mem_ctrls0.bytesPerActivate::stdev   179.393482                       # Bytes accessed per row activation
system.mem_ctrls0.bytesPerActivate::0-127      1099352     51.61%     51.61% # Bytes accessed per row activation
system.mem_ctrls0.bytesPerActivate::128-255       628252     29.50%     81.11% # Bytes accessed per row activation
system.mem_ctrls0.bytesPerActivate::256-383       214535     10.07%     91.18% # Bytes accessed per row activation
system.mem_ctrls0.bytesPerActivate::384-511        78110      3.67%     94.85% # Bytes accessed per row activation
system.mem_ctrls0.bytesPerActivate::512-639        30541      1.43%     96.28% # Bytes accessed per row activation
system.mem_ctrls0.bytesPerActivate::640-767        16177      0.76%     97.04% # Bytes accessed per row activation
system.mem_ctrls0.bytesPerActivate::768-895        12249      0.58%     97.62% # Bytes accessed per row activation
system.mem_ctrls0.bytesPerActivate::896-1023        10577      0.50%     98.11% # Bytes accessed per row activation
system.mem_ctrls0.bytesPerActivate::1024-1151        40172      1.89%    100.00% # Bytes accessed per row activation
system.mem_ctrls0.bytesPerActivate::total      2129965                       # Bytes accessed per row activation
system.mem_ctrls0.rdPerTurnAround::samples        88170                       # Reads before turning the bus around for writes
system.mem_ctrls0.rdPerTurnAround::mean     43.438335                       # Reads before turning the bus around for writes
system.mem_ctrls0.rdPerTurnAround::gmean    23.544830                       # Reads before turning the bus around for writes
system.mem_ctrls0.rdPerTurnAround::stdev   968.216254                       # Reads before turning the bus around for writes
system.mem_ctrls0.rdPerTurnAround::0-4095        88150     99.98%     99.98% # Reads before turning the bus around for writes
system.mem_ctrls0.rdPerTurnAround::4096-8191           13      0.01%     99.99% # Reads before turning the bus around for writes
system.mem_ctrls0.rdPerTurnAround::8192-12287            2      0.00%     99.99% # Reads before turning the bus around for writes
system.mem_ctrls0.rdPerTurnAround::12288-16383            1      0.00%    100.00% # Reads before turning the bus around for writes
system.mem_ctrls0.rdPerTurnAround::110592-114687            1      0.00%    100.00% # Reads before turning the bus around for writes
system.mem_ctrls0.rdPerTurnAround::126976-131071            1      0.00%    100.00% # Reads before turning the bus around for writes
system.mem_ctrls0.rdPerTurnAround::139264-143359            1      0.00%    100.00% # Reads before turning the bus around for writes
system.mem_ctrls0.rdPerTurnAround::176128-180223            1      0.00%    100.00% # Reads before turning the bus around for writes
system.mem_ctrls0.rdPerTurnAround::total        88170                       # Reads before turning the bus around for writes
system.mem_ctrls0.wrPerTurnAround::samples        88169                       # Writes before turning the bus around for reads
system.mem_ctrls0.wrPerTurnAround::mean     17.269913                       # Writes before turning the bus around for reads
system.mem_ctrls0.wrPerTurnAround::gmean    17.225919                       # Writes before turning the bus around for reads
system.mem_ctrls0.wrPerTurnAround::stdev     1.241195                       # Writes before turning the bus around for reads
system.mem_ctrls0.wrPerTurnAround::16           39173     44.43%     44.43% # Writes before turning the bus around for reads
system.mem_ctrls0.wrPerTurnAround::17            2235      2.53%     46.96% # Writes before turning the bus around for reads
system.mem_ctrls0.wrPerTurnAround::18           33602     38.11%     85.08% # Writes before turning the bus around for reads
system.mem_ctrls0.wrPerTurnAround::19           10673     12.11%     97.18% # Writes before turning the bus around for reads
system.mem_ctrls0.wrPerTurnAround::20            2068      2.35%     99.53% # Writes before turning the bus around for reads
system.mem_ctrls0.wrPerTurnAround::21             325      0.37%     99.89% # Writes before turning the bus around for reads
system.mem_ctrls0.wrPerTurnAround::22              58      0.07%     99.96% # Writes before turning the bus around for reads
system.mem_ctrls0.wrPerTurnAround::23              22      0.02%     99.99% # Writes before turning the bus around for reads
system.mem_ctrls0.wrPerTurnAround::24               9      0.01%    100.00% # Writes before turning the bus around for reads
system.mem_ctrls0.wrPerTurnAround::25               2      0.00%    100.00% # Writes before turning the bus around for reads
system.mem_ctrls0.wrPerTurnAround::26               2      0.00%    100.00% # Writes before turning the bus around for reads
system.mem_ctrls0.wrPerTurnAround::total        88169                       # Writes before turning the bus around for reads
system.mem_ctrls0.masterReadBytes::.switch_cpus_10.inst       631296                       # Per-master bytes read from memory
system.mem_ctrls0.masterReadBytes::.switch_cpus_10.data     60614528                       # Per-master bytes read from memory
system.mem_ctrls0.masterReadBytes::.switch_cpus_11.inst       653376                       # Per-master bytes read from memory
system.mem_ctrls0.masterReadBytes::.switch_cpus_11.data     60682944                       # Per-master bytes read from memory
system.mem_ctrls0.masterReadBytes::.switch_cpus_12.inst       653184                       # Per-master bytes read from memory
system.mem_ctrls0.masterReadBytes::.switch_cpus_12.data     60606464                       # Per-master bytes read from memory
system.mem_ctrls0.masterReadBytes::.switch_cpus_13.inst       639808                       # Per-master bytes read from memory
system.mem_ctrls0.masterReadBytes::.switch_cpus_13.data     60635712                       # Per-master bytes read from memory
system.mem_ctrls0.masterWriteBytes::.writebacks     97451456                       # Per-master bytes write to memory
system.mem_ctrls0.masterReadRate::.switch_cpus_10.inst 1663971.160616622772                       # Per-master bytes read from memory rate (Bytes/sec)
system.mem_ctrls0.masterReadRate::.switch_cpus_10.data 159767884.647437602282                       # Per-master bytes read from memory rate (Bytes/sec)
system.mem_ctrls0.masterReadRate::.switch_cpus_11.inst 1722169.665321887936                       # Per-master bytes read from memory rate (Bytes/sec)
system.mem_ctrls0.masterReadRate::.switch_cpus_11.data 159948215.666364938021                       # Per-master bytes read from memory rate (Bytes/sec)
system.mem_ctrls0.masterReadRate::.switch_cpus_12.inst 1721663.591367929010                       # Per-master bytes read from memory rate (Bytes/sec)
system.mem_ctrls0.masterReadRate::.switch_cpus_12.data 159746629.541371345520                       # Per-master bytes read from memory rate (Bytes/sec)
system.mem_ctrls0.masterReadRate::.switch_cpus_13.inst 1686407.105908797355                       # Per-master bytes read from memory rate (Bytes/sec)
system.mem_ctrls0.masterReadRate::.switch_cpus_13.data 159823721.473691076040                       # Per-master bytes read from memory rate (Bytes/sec)
system.mem_ctrls0.masterWriteRate::.writebacks 256862727.380024164915                       # Per-master bytes write to memory rate (Bytes/sec)
system.mem_ctrls0.masterReadAccesses::.switch_cpus_10.inst         9864                       # Per-master read serviced memory accesses
system.mem_ctrls0.masterReadAccesses::.switch_cpus_10.data       947226                       # Per-master read serviced memory accesses
system.mem_ctrls0.masterReadAccesses::.switch_cpus_11.inst        10209                       # Per-master read serviced memory accesses
system.mem_ctrls0.masterReadAccesses::.switch_cpus_11.data       948290                       # Per-master read serviced memory accesses
system.mem_ctrls0.masterReadAccesses::.switch_cpus_12.inst        10206                       # Per-master read serviced memory accesses
system.mem_ctrls0.masterReadAccesses::.switch_cpus_12.data       947089                       # Per-master read serviced memory accesses
system.mem_ctrls0.masterReadAccesses::.switch_cpus_13.inst         9997                       # Per-master read serviced memory accesses
system.mem_ctrls0.masterReadAccesses::.switch_cpus_13.data       947546                       # Per-master read serviced memory accesses
system.mem_ctrls0.masterWriteAccesses::.writebacks      1522736                       # Per-master write serviced memory accesses
system.mem_ctrls0.masterReadTotalLat::.switch_cpus_10.inst    439329466                       # Per-master read total memory access latency
system.mem_ctrls0.masterReadTotalLat::.switch_cpus_10.data  35885469080                       # Per-master read total memory access latency
system.mem_ctrls0.masterReadTotalLat::.switch_cpus_11.inst    456723435                       # Per-master read total memory access latency
system.mem_ctrls0.masterReadTotalLat::.switch_cpus_11.data  36009133899                       # Per-master read total memory access latency
system.mem_ctrls0.masterReadTotalLat::.switch_cpus_12.inst    453639832                       # Per-master read total memory access latency
system.mem_ctrls0.masterReadTotalLat::.switch_cpus_12.data  36140526983                       # Per-master read total memory access latency
system.mem_ctrls0.masterReadTotalLat::.switch_cpus_13.inst    443764304                       # Per-master read total memory access latency
system.mem_ctrls0.masterReadTotalLat::.switch_cpus_13.data  35860994922                       # Per-master read total memory access latency
system.mem_ctrls0.masterWriteTotalLat::.writebacks 21281375029193                       # Per-master write total memory access latency
system.mem_ctrls0.masterReadAvgLat::.switch_cpus_10.inst     44538.67                       # Per-master read average memory access latency
system.mem_ctrls0.masterReadAvgLat::.switch_cpus_10.data     37884.80                       # Per-master read average memory access latency
system.mem_ctrls0.masterReadAvgLat::.switch_cpus_11.inst     44737.33                       # Per-master read average memory access latency
system.mem_ctrls0.masterReadAvgLat::.switch_cpus_11.data     37972.70                       # Per-master read average memory access latency
system.mem_ctrls0.masterReadAvgLat::.switch_cpus_12.inst     44448.35                       # Per-master read average memory access latency
system.mem_ctrls0.masterReadAvgLat::.switch_cpus_12.data     38159.59                       # Per-master read average memory access latency
system.mem_ctrls0.masterReadAvgLat::.switch_cpus_13.inst     44389.75                       # Per-master read average memory access latency
system.mem_ctrls0.masterReadAvgLat::.switch_cpus_13.data     37846.18                       # Per-master read average memory access latency
system.mem_ctrls0.masterWriteAvgLat::.writebacks  13975748.28                       # Per-master write average memory access latency
system.mem_ctrls0.totQLat                 77286532041                       # Total ticks spent queuing
system.mem_ctrls0.totMemAccLat           145689581921                       # Total ticks spent from burst creation until serviced by the DRAM
system.mem_ctrls0.totBusLat               14400642080                       # Total ticks spent in databus transfers
system.mem_ctrls0.avgQLat                    20179.47                       # Average queueing delay per DRAM burst
system.mem_ctrls0.avgBusLat                   3760.00                       # Average bus latency per DRAM burst
system.mem_ctrls0.avgMemAccLat               38039.47                       # Average memory access latency per DRAM burst
system.mem_ctrls0.avgRdBW                      646.08                       # Average DRAM read bandwidth in MiByte/s
system.mem_ctrls0.avgWrBW                      256.86                       # Average achieved write bandwidth in MiByte/s
system.mem_ctrls0.avgRdBWSys                   646.16                       # Average system read bandwidth in MiByte/s
system.mem_ctrls0.avgWrBWSys                   256.87                       # Average system write bandwidth in MiByte/s
system.mem_ctrls0.peakBW                     17021.00                       # Theoretical peak bandwidth in MiByte/s
system.mem_ctrls0.busUtil                        5.30                       # Data bus utilization in percentage
system.mem_ctrls0.busUtilRead                    3.80                       # Data bus utilization in percentage for reads
system.mem_ctrls0.busUtilWrite                   1.51                       # Data bus utilization in percentage for writes
system.mem_ctrls0.avgRdQLen                      1.38                       # Average read queue length when enqueuing
system.mem_ctrls0.avgWrQLen                     56.89                       # Average write queue length when enqueuing
system.mem_ctrls0.readRowHits                 2536348                       # Number of row buffer hits during reads
system.mem_ctrls0.writeRowHits                 686309                       # Number of row buffer hits during writes
system.mem_ctrls0.readRowHitRate                66.22                       # Row buffer hit rate for reads
system.mem_ctrls0.writeRowHitRate               45.07                       # Row buffer hit rate for writes
system.mem_ctrls0.avgGap                     70872.33                       # Average gap between requests
system.mem_ctrls0.pageHitRate                   60.21                       # Row buffer hit rate, read and write combined
system.mem_ctrls0_0.actEnergy                       0                       # Energy for activate commands per rank (pJ)
system.mem_ctrls0_0.preEnergy            2766090872.160000                       # Energy for precharge commands per rank (pJ)
system.mem_ctrls0_0.readEnergy           5091057626.880010                       # Energy for read commands per rank (pJ)
system.mem_ctrls0_0.writeEnergy            2567582928                       # Energy for write commands per rank (pJ)
system.mem_ctrls0_0.refreshEnergy        22939332187.210407                       # Energy for refresh commands per rank (pJ)
system.mem_ctrls0_0.actBackEnergy        53660008148.879921                       # Energy for active background per rank (pJ)
system.mem_ctrls0_0.preBackEnergy        720707589.503946                       # Energy for precharge background per rank (pJ)
system.mem_ctrls0_0.actPowerDownEnergy   106238695802.879913                       # Energy for active power-down per rank (pJ)
system.mem_ctrls0_0.prePowerDownEnergy   2134626297.598529                       # Energy for precharge power-down per rank (pJ)
system.mem_ctrls0_0.selfRefreshEnergy    294701291.280000                       # Energy for self refresh per rank (pJ)
system.mem_ctrls0_0.totalEnergy          196413898393.342743                       # Total energy per rank (pJ)
system.mem_ctrls0_0.averagePower           517.708115                       # Core power per rank (mW)
system.mem_ctrls0_0.totalIdleTime        286343394609                       # Total Idle time Per DRAM Rank
system.mem_ctrls0_0.memoryStateTime::IDLE    324474390                       # Time in different power states
system.mem_ctrls0_0.memoryStateTime::REF  12641200000                       # Time in different power states
system.mem_ctrls0_0.memoryStateTime::SREF    785733870                       # Time in different power states
system.mem_ctrls0_0.memoryStateTime::PRE_PDN   8894308359                       # Time in different power states
system.mem_ctrls0_0.memoryStateTime::ACT  80082125001                       # Time in different power states
system.mem_ctrls0_0.memoryStateTime::ACT_PDN 276663352380                       # Time in different power states
system.mem_ctrls0_1.actEnergy                       0                       # Energy for activate commands per rank (pJ)
system.mem_ctrls0_1.preEnergy            2783900694.960114                       # Energy for precharge commands per rank (pJ)
system.mem_ctrls0_1.readEnergy           5104596965.760081                       # Energy for read commands per rank (pJ)
system.mem_ctrls0_1.writeEnergy            2585139120                       # Energy for write commands per rank (pJ)
system.mem_ctrls0_1.refreshEnergy        22960563572.410469                       # Energy for refresh commands per rank (pJ)
system.mem_ctrls0_1.actBackEnergy        53501756122.079796                       # Energy for active background per rank (pJ)
system.mem_ctrls0_1.preBackEnergy        725485743.359951                       # Energy for precharge background per rank (pJ)
system.mem_ctrls0_1.actPowerDownEnergy   106451328314.879410                       # Energy for active power-down per rank (pJ)
system.mem_ctrls0_1.prePowerDownEnergy   2144539387.198852                       # Energy for precharge power-down per rank (pJ)
system.mem_ctrls0_1.selfRefreshEnergy    180763026.480000                       # Energy for self refresh per rank (pJ)
system.mem_ctrls0_1.totalEnergy          196439565843.839417                       # Total energy per rank (pJ)
system.mem_ctrls0_1.averagePower           517.775770                       # Core power per rank (mW)
system.mem_ctrls0_1.totalIdleTime        286600279645                       # Total Idle time Per DRAM Rank
system.mem_ctrls0_1.memoryStateTime::IDLE    314775250                       # Time in different power states
system.mem_ctrls0_1.memoryStateTime::REF  12652900000                       # Time in different power states
system.mem_ctrls0_1.memoryStateTime::SREF    447270500                       # Time in different power states
system.mem_ctrls0_1.memoryStateTime::PRE_PDN   8935498175                       # Time in different power states
system.mem_ctrls0_1.memoryStateTime::ACT  79823239105                       # Time in different power states
system.mem_ctrls0_1.memoryStateTime::ACT_PDN 277217510970                       # Time in different power states
system.mem_ctrls1.pwrStateResidencyTicks::UNDEFINED 437218964500                       # Cumulative time (in ticks) in various power states
system.mem_ctrls1.bytes_read::.switch_cpus_10.inst       642816                       # Number of bytes read from this memory
system.mem_ctrls1.bytes_read::.switch_cpus_10.data     60605760                       # Number of bytes read from this memory
system.mem_ctrls1.bytes_read::.switch_cpus_11.inst       639296                       # Number of bytes read from this memory
system.mem_ctrls1.bytes_read::.switch_cpus_11.data     60689728                       # Number of bytes read from this memory
system.mem_ctrls1.bytes_read::.switch_cpus_12.inst       657856                       # Number of bytes read from this memory
system.mem_ctrls1.bytes_read::.switch_cpus_12.data     60643904                       # Number of bytes read from this memory
system.mem_ctrls1.bytes_read::.switch_cpus_13.inst       647552                       # Number of bytes read from this memory
system.mem_ctrls1.bytes_read::.switch_cpus_13.data     60653440                       # Number of bytes read from this memory
system.mem_ctrls1.bytes_read::total         245180352                       # Number of bytes read from this memory
system.mem_ctrls1.bytes_inst_read::.switch_cpus_10.inst       642816                       # Number of instructions bytes read from this memory
system.mem_ctrls1.bytes_inst_read::.switch_cpus_11.inst       639296                       # Number of instructions bytes read from this memory
system.mem_ctrls1.bytes_inst_read::.switch_cpus_12.inst       657856                       # Number of instructions bytes read from this memory
system.mem_ctrls1.bytes_inst_read::.switch_cpus_13.inst       647552                       # Number of instructions bytes read from this memory
system.mem_ctrls1.bytes_inst_read::total      2587520                       # Number of instructions bytes read from this memory
system.mem_ctrls1.bytes_written::.writebacks     97444544                       # Number of bytes written to this memory
system.mem_ctrls1.bytes_written::total       97444544                       # Number of bytes written to this memory
system.mem_ctrls1.num_reads::.switch_cpus_10.inst        10044                       # Number of read requests responded to by this memory
system.mem_ctrls1.num_reads::.switch_cpus_10.data       946965                       # Number of read requests responded to by this memory
system.mem_ctrls1.num_reads::.switch_cpus_11.inst         9989                       # Number of read requests responded to by this memory
system.mem_ctrls1.num_reads::.switch_cpus_11.data       948277                       # Number of read requests responded to by this memory
system.mem_ctrls1.num_reads::.switch_cpus_12.inst        10279                       # Number of read requests responded to by this memory
system.mem_ctrls1.num_reads::.switch_cpus_12.data       947561                       # Number of read requests responded to by this memory
system.mem_ctrls1.num_reads::.switch_cpus_13.inst        10118                       # Number of read requests responded to by this memory
system.mem_ctrls1.num_reads::.switch_cpus_13.data       947710                       # Number of read requests responded to by this memory
system.mem_ctrls1.num_reads::total            3830943                       # Number of read requests responded to by this memory
system.mem_ctrls1.num_writes::.writebacks      1522571                       # Number of write requests responded to by this memory
system.mem_ctrls1.num_writes::total           1522571                       # Number of write requests responded to by this memory
system.mem_ctrls1.bw_read::.switch_cpus_10.inst      1694336                       # Total read bandwidth from this memory (bytes/s)
system.mem_ctrls1.bw_read::.switch_cpus_10.data    159744774                       # Total read bandwidth from this memory (bytes/s)
system.mem_ctrls1.bw_read::.switch_cpus_11.inst      1685058                       # Total read bandwidth from this memory (bytes/s)
system.mem_ctrls1.bw_read::.switch_cpus_11.data    159966097                       # Total read bandwidth from this memory (bytes/s)
system.mem_ctrls1.bw_read::.switch_cpus_12.inst      1733978                       # Total read bandwidth from this memory (bytes/s)
system.mem_ctrls1.bw_read::.switch_cpus_12.data    159845314                       # Total read bandwidth from this memory (bytes/s)
system.mem_ctrls1.bw_read::.switch_cpus_13.inst      1706819                       # Total read bandwidth from this memory (bytes/s)
system.mem_ctrls1.bw_read::.switch_cpus_13.data    159870449                       # Total read bandwidth from this memory (bytes/s)
system.mem_ctrls1.bw_read::total            646246824                       # Total read bandwidth from this memory (bytes/s)
system.mem_ctrls1.bw_inst_read::.switch_cpus_10.inst      1694336                       # Instruction read bandwidth from this memory (bytes/s)
system.mem_ctrls1.bw_inst_read::.switch_cpus_11.inst      1685058                       # Instruction read bandwidth from this memory (bytes/s)
system.mem_ctrls1.bw_inst_read::.switch_cpus_12.inst      1733978                       # Instruction read bandwidth from this memory (bytes/s)
system.mem_ctrls1.bw_inst_read::.switch_cpus_13.inst      1706819                       # Instruction read bandwidth from this memory (bytes/s)
system.mem_ctrls1.bw_inst_read::total         6820190                       # Instruction read bandwidth from this memory (bytes/s)
system.mem_ctrls1.bw_write::.writebacks     256844509                       # Write bandwidth from this memory (bytes/s)
system.mem_ctrls1.bw_write::total           256844509                       # Write bandwidth from this memory (bytes/s)
system.mem_ctrls1.bw_total::.writebacks     256844509                       # Total bandwidth to/from this memory (bytes/s)
system.mem_ctrls1.bw_total::.switch_cpus_10.inst      1694336                       # Total bandwidth to/from this memory (bytes/s)
system.mem_ctrls1.bw_total::.switch_cpus_10.data    159744774                       # Total bandwidth to/from this memory (bytes/s)
system.mem_ctrls1.bw_total::.switch_cpus_11.inst      1685058                       # Total bandwidth to/from this memory (bytes/s)
system.mem_ctrls1.bw_total::.switch_cpus_11.data    159966097                       # Total bandwidth to/from this memory (bytes/s)
system.mem_ctrls1.bw_total::.switch_cpus_12.inst      1733978                       # Total bandwidth to/from this memory (bytes/s)
system.mem_ctrls1.bw_total::.switch_cpus_12.data    159845314                       # Total bandwidth to/from this memory (bytes/s)
system.mem_ctrls1.bw_total::.switch_cpus_13.inst      1706819                       # Total bandwidth to/from this memory (bytes/s)
system.mem_ctrls1.bw_total::.switch_cpus_13.data    159870449                       # Total bandwidth to/from this memory (bytes/s)
system.mem_ctrls1.bw_total::total           903091333                       # Total bandwidth to/from this memory (bytes/s)
system.mem_ctrls1.avgPriority_.writebacks::samples   1522571.00                       # Average QoS priority value for accepted requests
system.mem_ctrls1.avgPriority_.switch_cpus_10.inst::samples     10044.00                       # Average QoS priority value for accepted requests
system.mem_ctrls1.avgPriority_.switch_cpus_10.data::samples    946853.00                       # Average QoS priority value for accepted requests
system.mem_ctrls1.avgPriority_.switch_cpus_11.inst::samples      9989.00                       # Average QoS priority value for accepted requests
system.mem_ctrls1.avgPriority_.switch_cpus_11.data::samples    948165.00                       # Average QoS priority value for accepted requests
system.mem_ctrls1.avgPriority_.switch_cpus_12.inst::samples     10279.00                       # Average QoS priority value for accepted requests
system.mem_ctrls1.avgPriority_.switch_cpus_12.data::samples    947457.00                       # Average QoS priority value for accepted requests
system.mem_ctrls1.avgPriority_.switch_cpus_13.inst::samples     10118.00                       # Average QoS priority value for accepted requests
system.mem_ctrls1.avgPriority_.switch_cpus_13.data::samples    947586.00                       # Average QoS priority value for accepted requests
system.mem_ctrls1.priorityMinLatency     0.000000017860                       # per QoS priority minimum request to response latency (s)
system.mem_ctrls1.priorityMaxLatency     0.031432098540                       # per QoS priority maximum request to response latency (s)
system.mem_ctrls1.numReadWriteTurnArounds        88154                       # Number of turnarounds from READ to WRITE
system.mem_ctrls1.numWriteReadTurnArounds        88154                       # Number of turnarounds from WRITE to READ
system.mem_ctrls1.numStayReadState            9010928                       # Number of times bus staying in READ state
system.mem_ctrls1.numStayWriteState           1434922                       # Number of times bus staying in WRITE state
system.mem_ctrls1.readReqs                    3830944                       # Number of read requests accepted
system.mem_ctrls1.writeReqs                   1522571                       # Number of write requests accepted
system.mem_ctrls1.readBursts                  3830944                       # Number of DRAM read bursts, including those serviced by the write queue
system.mem_ctrls1.writeBursts                 1522571                       # Number of DRAM write bursts, including those merged in the write queue
system.mem_ctrls1.bytesReadDRAM             245151424                       # Total number of bytes read from DRAM
system.mem_ctrls1.bytesReadWrQ                  28992                       # Total number of bytes read from write queue
system.mem_ctrls1.bytesWritten               97441344                       # Total number of bytes written to DRAM
system.mem_ctrls1.bytesReadSys              245180416                       # Total read bytes from the system interface side
system.mem_ctrls1.bytesWrittenSys            97444544                       # Total written bytes from the system interface side
system.mem_ctrls1.servicedByWrQ                   453                       # Number of DRAM read bursts serviced by the write queue
system.mem_ctrls1.mergedWrBursts                    0                       # Number of DRAM write bursts merged with an existing one
system.mem_ctrls1.neitherReadNorWriteReqs            0                       # Number of requests that are neither read nor write
system.mem_ctrls1.perBankRdBursts::0           120795                       # Per bank write bursts
system.mem_ctrls1.perBankRdBursts::1           117813                       # Per bank write bursts
system.mem_ctrls1.perBankRdBursts::2           119500                       # Per bank write bursts
system.mem_ctrls1.perBankRdBursts::3           117973                       # Per bank write bursts
system.mem_ctrls1.perBankRdBursts::4           120004                       # Per bank write bursts
system.mem_ctrls1.perBankRdBursts::5           120734                       # Per bank write bursts
system.mem_ctrls1.perBankRdBursts::6           116179                       # Per bank write bursts
system.mem_ctrls1.perBankRdBursts::7           118985                       # Per bank write bursts
system.mem_ctrls1.perBankRdBursts::8           118866                       # Per bank write bursts
system.mem_ctrls1.perBankRdBursts::9           119129                       # Per bank write bursts
system.mem_ctrls1.perBankRdBursts::10          117981                       # Per bank write bursts
system.mem_ctrls1.perBankRdBursts::11          122027                       # Per bank write bursts
system.mem_ctrls1.perBankRdBursts::12          121894                       # Per bank write bursts
system.mem_ctrls1.perBankRdBursts::13          119393                       # Per bank write bursts
system.mem_ctrls1.perBankRdBursts::14          120123                       # Per bank write bursts
system.mem_ctrls1.perBankRdBursts::15          120691                       # Per bank write bursts
system.mem_ctrls1.perBankRdBursts::16          122439                       # Per bank write bursts
system.mem_ctrls1.perBankRdBursts::17          122127                       # Per bank write bursts
system.mem_ctrls1.perBankRdBursts::18          115604                       # Per bank write bursts
system.mem_ctrls1.perBankRdBursts::19          120261                       # Per bank write bursts
system.mem_ctrls1.perBankRdBursts::20          121201                       # Per bank write bursts
system.mem_ctrls1.perBankRdBursts::21          119748                       # Per bank write bursts
system.mem_ctrls1.perBankRdBursts::22          117397                       # Per bank write bursts
system.mem_ctrls1.perBankRdBursts::23          118594                       # Per bank write bursts
system.mem_ctrls1.perBankRdBursts::24          120300                       # Per bank write bursts
system.mem_ctrls1.perBankRdBursts::25          120357                       # Per bank write bursts
system.mem_ctrls1.perBankRdBursts::26          116759                       # Per bank write bursts
system.mem_ctrls1.perBankRdBursts::27          122468                       # Per bank write bursts
system.mem_ctrls1.perBankRdBursts::28          120831                       # Per bank write bursts
system.mem_ctrls1.perBankRdBursts::29          121610                       # Per bank write bursts
system.mem_ctrls1.perBankRdBursts::30          119015                       # Per bank write bursts
system.mem_ctrls1.perBankRdBursts::31          119693                       # Per bank write bursts
system.mem_ctrls1.perBankWrBursts::0            47561                       # Per bank write bursts
system.mem_ctrls1.perBankWrBursts::1            46015                       # Per bank write bursts
system.mem_ctrls1.perBankWrBursts::2            47110                       # Per bank write bursts
system.mem_ctrls1.perBankWrBursts::3            46853                       # Per bank write bursts
system.mem_ctrls1.perBankWrBursts::4            47696                       # Per bank write bursts
system.mem_ctrls1.perBankWrBursts::5            47564                       # Per bank write bursts
system.mem_ctrls1.perBankWrBursts::6            47101                       # Per bank write bursts
system.mem_ctrls1.perBankWrBursts::7            47489                       # Per bank write bursts
system.mem_ctrls1.perBankWrBursts::8            47093                       # Per bank write bursts
system.mem_ctrls1.perBankWrBursts::9            47198                       # Per bank write bursts
system.mem_ctrls1.perBankWrBursts::10           47921                       # Per bank write bursts
system.mem_ctrls1.perBankWrBursts::11           47179                       # Per bank write bursts
system.mem_ctrls1.perBankWrBursts::12           48593                       # Per bank write bursts
system.mem_ctrls1.perBankWrBursts::13           47137                       # Per bank write bursts
system.mem_ctrls1.perBankWrBursts::14           48461                       # Per bank write bursts
system.mem_ctrls1.perBankWrBursts::15           47913                       # Per bank write bursts
system.mem_ctrls1.perBankWrBursts::16           48272                       # Per bank write bursts
system.mem_ctrls1.perBankWrBursts::17           47329                       # Per bank write bursts
system.mem_ctrls1.perBankWrBursts::18           45934                       # Per bank write bursts
system.mem_ctrls1.perBankWrBursts::19           46749                       # Per bank write bursts
system.mem_ctrls1.perBankWrBursts::20           48733                       # Per bank write bursts
system.mem_ctrls1.perBankWrBursts::21           47047                       # Per bank write bursts
system.mem_ctrls1.perBankWrBursts::22           47828                       # Per bank write bursts
system.mem_ctrls1.perBankWrBursts::23           47623                       # Per bank write bursts
system.mem_ctrls1.perBankWrBursts::24           47429                       # Per bank write bursts
system.mem_ctrls1.perBankWrBursts::25           48056                       # Per bank write bursts
[...]
system.switch_cpus_13.iew.memOrderViolationEvents        65686                       # Number of memory order violations
system.switch_cpus_13.iew.predictedTakenIncorrect     12505708                       # Number of branches that were predicted taken incorrectly
system.switch_cpus_13.iew.predictedNotTakenIncorrect     38404518                       # Number of branches that were predicted not taken incorrectly
system.switch_cpus_13.iew.branchMispredicts     50910226                       # Number of branch mispredicts detected at execute
system.switch_cpus_13.iew.iewExecutedInsts   1491977058                       # Number of executed instructions
system.switch_cpus_13.iew.iewExecLoadInsts    199225355                       # Number of load instructions executed
system.switch_cpus_13.iew.iewExecSquashedInsts     59928028                       # Number of squashed instructions skipped in execute
system.switch_cpus_13.iew.exec_swp                  0                       # number of swp insts executed
system.switch_cpus_13.iew.exec_nop                  0                       # number of nop insts executed
system.switch_cpus_13.iew.exec_refs         300453728                       # number of memory reference insts executed
system.switch_cpus_13.iew.exec_branches     152683158                       # Number of branches executed
system.switch_cpus_13.iew.exec_stores       101228373                       # Number of stores executed
system.switch_cpus_13.iew.exec_rate          0.983139                       # Inst execution rate
system.switch_cpus_13.iew.wb_sent          1463049421                       # cumulative count of insts sent to commit
system.switch_cpus_13.iew.wb_count         1451828629                       # cumulative count of insts written-back
system.switch_cpus_13.iew.wb_producers     1009914274                       # num instructions producing a value
system.switch_cpus_13.iew.wb_consumers     1610901197                       # num instructions consuming a value
system.switch_cpus_13.iew.wb_rate            0.956683                       # insts written-back per cycle
system.switch_cpus_13.iew.wb_fanout          0.626925                       # average fanout of values written-back
system.switch_cpus_13.commit.commitSquashedInsts    828688122                       # The number of squashed insts skipped by commit
system.switch_cpus_13.commit.commitNonSpecStalls        16427                       # The number of times commit has been forced to stall to communicate backwards
system.switch_cpus_13.commit.branchMispredicts     40866319                       # The number of times a branch was mispredicted
system.switch_cpus_13.commit.committed_per_cycle::samples   1358919434                       # Number of insts commited each cycle
system.switch_cpus_13.commit.committed_per_cycle::mean     0.728769                       # Number of insts commited each cycle
system.switch_cpus_13.commit.committed_per_cycle::stdev     1.756955                       # Number of insts commited each cycle
system.switch_cpus_13.commit.committed_per_cycle::underflows            0      0.00%      0.00% # Number of insts commited each cycle
system.switch_cpus_13.commit.committed_per_cycle::0   1050050851     77.27%     77.27% # Number of insts commited each cycle
system.switch_cpus_13.commit.committed_per_cycle::1    102233918      7.52%     84.79% # Number of insts commited each cycle
system.switch_cpus_13.commit.committed_per_cycle::2     46212362      3.40%     88.19% # Number of insts commited each cycle
system.switch_cpus_13.commit.committed_per_cycle::3     62479471      4.60%     92.79% # Number of insts commited each cycle
system.switch_cpus_13.commit.committed_per_cycle::4     28438658      2.09%     94.89% # Number of insts commited each cycle
system.switch_cpus_13.commit.committed_per_cycle::5     11037295      0.81%     95.70% # Number of insts commited each cycle
system.switch_cpus_13.commit.committed_per_cycle::6     10428748      0.77%     96.46% # Number of insts commited each cycle
system.switch_cpus_13.commit.committed_per_cycle::7      7577476      0.56%     97.02% # Number of insts commited each cycle
system.switch_cpus_13.commit.committed_per_cycle::8     40460655      2.98%    100.00% # Number of insts commited each cycle
system.switch_cpus_13.commit.committed_per_cycle::overflows            0      0.00%    100.00% # Number of insts commited each cycle
system.switch_cpus_13.commit.committed_per_cycle::min_value            0                       # Number of insts commited each cycle
system.switch_cpus_13.commit.committed_per_cycle::max_value            8                       # Number of insts commited each cycle
system.switch_cpus_13.commit.committed_per_cycle::total   1358919434                       # Number of insts commited each cycle
system.switch_cpus_13.commit.committedInsts    499816948                       # Number of instructions committed
system.switch_cpus_13.commit.committedOps    990338222                       # Number of ops (including micro ops) committed
system.switch_cpus_13.commit.swp_count              0                       # Number of s/w prefetches committed
system.switch_cpus_13.commit.refs           206238018                       # Number of memory references committed
system.switch_cpus_13.commit.loads          131721669                       # Number of loads committed
system.switch_cpus_13.commit.membars            10814                       # Number of memory barriers committed
system.switch_cpus_13.commit.branches       111604828                       # Number of branches committed
system.switch_cpus_13.commit.vec_insts              0                       # Number of committed Vector instructions.
system.switch_cpus_13.commit.fp_insts         3579340                       # Number of committed floating point instructions.
system.switch_cpus_13.commit.int_insts      985179413                       # Number of committed integer instructions.
system.switch_cpus_13.commit.function_calls     13099650                       # Number of function calls committed.
system.switch_cpus_13.commit.op_class_0::No_OpClass      3313983      0.33%      0.33% # Class of committed instruction
system.switch_cpus_13.commit.op_class_0::IntAlu    764954369     77.24%     77.58% # Class of committed instruction
system.switch_cpus_13.commit.op_class_0::IntMult      1373024      0.14%     77.72% # Class of committed instruction
system.switch_cpus_13.commit.op_class_0::IntDiv     12666654      1.28%     78.99% # Class of committed instruction
system.switch_cpus_13.commit.op_class_0::FloatAdd       172800      0.02%     79.01% # Class of committed instruction
system.switch_cpus_13.commit.op_class_0::FloatCmp            0      0.00%     79.01% # Class of committed instruction
system.switch_cpus_13.commit.op_class_0::FloatCvt            0      0.00%     79.01% # Class of committed instruction
system.switch_cpus_13.commit.op_class_0::FloatMult            0      0.00%     79.01% # Class of committed instruction
system.switch_cpus_13.commit.op_class_0::FloatMultAcc            0      0.00%     79.01% # Class of committed instruction
system.switch_cpus_13.commit.op_class_0::FloatDiv            0      0.00%     79.01% # Class of committed instruction
system.switch_cpus_13.commit.op_class_0::FloatMisc            0      0.00%     79.01% # Class of committed instruction
system.switch_cpus_13.commit.op_class_0::FloatSqrt            0      0.00%     79.01% # Class of committed instruction
system.switch_cpus_13.commit.op_class_0::SimdAdd        78582      0.01%     79.02% # Class of committed instruction
system.switch_cpus_13.commit.op_class_0::SimdAddAcc            0      0.00%     79.02% # Class of committed instruction
system.switch_cpus_13.commit.op_class_0::SimdAlu        54681      0.01%     79.02% # Class of committed instruction
system.switch_cpus_13.commit.op_class_0::SimdCmp            0      0.00%     79.02% # Class of committed instruction
system.switch_cpus_13.commit.op_class_0::SimdCvt       158280      0.02%     79.04% # Class of committed instruction
system.switch_cpus_13.commit.op_class_0::SimdMisc      1321806      0.13%     79.17% # Class of committed instruction
system.switch_cpus_13.commit.op_class_0::SimdMult            0      0.00%     79.17% # Class of committed instruction
system.switch_cpus_13.commit.op_class_0::SimdMultAcc            0      0.00%     79.17% # Class of committed instruction
system.switch_cpus_13.commit.op_class_0::SimdShift         5993      0.00%     79.17% # Class of committed instruction
system.switch_cpus_13.commit.op_class_0::SimdShiftAcc            0      0.00%     79.17% # Class of committed instruction
system.switch_cpus_13.commit.op_class_0::SimdSqrt            0      0.00%     79.17% # Class of committed instruction
system.switch_cpus_13.commit.op_class_0::SimdFloatAdd            0      0.00%     79.17% # Class of committed instruction
system.switch_cpus_13.commit.op_class_0::SimdFloatAlu            0      0.00%     79.17% # Class of committed instruction
system.switch_cpus_13.commit.op_class_0::SimdFloatCmp            0      0.00%     79.17% # Class of committed instruction
system.switch_cpus_13.commit.op_class_0::SimdFloatCvt           24      0.00%     79.17% # Class of committed instruction
system.switch_cpus_13.commit.op_class_0::SimdFloatDiv            0      0.00%     79.17% # Class of committed instruction
system.switch_cpus_13.commit.op_class_0::SimdFloatMisc            0      0.00%     79.17% # Class of committed instruction
system.switch_cpus_13.commit.op_class_0::SimdFloatMult            8      0.00%     79.17% # Class of committed instruction
system.switch_cpus_13.commit.op_class_0::SimdFloatMultAcc            0      0.00%     79.17% # Class of committed instruction
system.switch_cpus_13.commit.op_class_0::SimdFloatSqrt            0      0.00%     79.17% # Class of committed instruction
system.switch_cpus_13.commit.op_class_0::SimdAes            0      0.00%     79.17% # Class of committed instruction
system.switch_cpus_13.commit.op_class_0::SimdAesMix            0      0.00%     79.17% # Class of committed instruction
system.switch_cpus_13.commit.op_class_0::SimdSha1Hash            0      0.00%     79.17% # Class of committed instruction
system.switch_cpus_13.commit.op_class_0::SimdSha1Hash2            0      0.00%     79.17% # Class of committed instruction
system.switch_cpus_13.commit.op_class_0::SimdSha256Hash            0      0.00%     79.17% # Class of committed instruction
system.switch_cpus_13.commit.op_class_0::SimdSha256Hash2            0      0.00%     79.17% # Class of committed instruction
system.switch_cpus_13.commit.op_class_0::SimdShaSigma2            0      0.00%     79.17% # Class of committed instruction
system.switch_cpus_13.commit.op_class_0::SimdShaSigma3            0      0.00%     79.17% # Class of committed instruction
system.switch_cpus_13.commit.op_class_0::MemRead    131562511     13.28%     92.46% # Class of committed instruction
system.switch_cpus_13.commit.op_class_0::MemWrite     73064137      7.38%     99.84% # Class of committed instruction
system.switch_cpus_13.commit.op_class_0::FloatMemRead       159158      0.02%     99.85% # Class of committed instruction
system.switch_cpus_13.commit.op_class_0::FloatMemWrite      1452212      0.15%    100.00% # Class of committed instruction
system.switch_cpus_13.commit.op_class_0::IprAccess            0      0.00%    100.00% # Class of committed instruction
system.switch_cpus_13.commit.op_class_0::InstPrefetch            0      0.00%    100.00% # Class of committed instruction
system.switch_cpus_13.commit.op_class_0::total    990338222                       # Class of committed instruction
system.switch_cpus_13.commit.bw_lim_events     40460655                       # number cycles where commit BW limit reached
system.switch_cpus_13.rob.rob_reads        3137485123                       # The number of ROB reads
system.switch_cpus_13.rob.rob_writes       3774676132                       # The number of ROB writes
system.switch_cpus_13.timesIdled              2164256                       # Number of times that the entire CPU went into an idle state and unscheduled itself
system.switch_cpus_13.idleCycles             23514508                       # Total number of cycles that the CPU has spent unscheduled due to idling
system.switch_cpus_13.committedInsts        499816948                       # Number of Instructions Simulated
system.switch_cpus_13.committedOps          990338222                       # Number of Ops (including micro ops) Simulated
system.switch_cpus_13.cpi                    3.036241                       # CPI: Cycles Per Instruction
system.switch_cpus_13.cpi_total              3.036241                       # CPI: Total CPI of All Threads
system.switch_cpus_13.ipc                    0.329355                       # IPC: Instructions Per Cycle
system.switch_cpus_13.ipc_total              0.329355                       # IPC: Total IPC of All Threads
system.switch_cpus_13.int_regfile_reads    2138456296                       # number of integer regfile reads
system.switch_cpus_13.int_regfile_writes   1215768367                       # number of integer regfile writes
system.switch_cpus_13.fp_regfile_reads        5355214                       # number of floating regfile reads
system.switch_cpus_13.fp_regfile_writes       2535509                       # number of floating regfile writes
system.switch_cpus_13.cc_regfile_reads      600082277                       # number of cc regfile reads
system.switch_cpus_13.cc_regfile_writes     365087059                       # number of cc regfile writes
system.switch_cpus_13.misc_regfile_reads    644452699                       # number of misc regfile reads
system.tol3bus.snoop_filter.tot_requests     24881663                       # Total number of requests made to the snoop filter.
system.tol3bus.snoop_filter.hit_single_requests     12474391                       # Number of requests hitting in the snoop filter with a single holder of the requested data.
system.tol3bus.snoop_filter.hit_multi_requests            0                       # Number of requests hitting in the snoop filter with multiple (>1) holders of the requested data.
system.tol3bus.snoop_filter.tot_snoops          37106                       # Total number of snoops made to the snoop filter.
system.tol3bus.snoop_filter.hit_single_snoops        37106                       # Number of snoops hitting in the snoop filter with a single holder of the requested data.
system.tol3bus.snoop_filter.hit_multi_snoops            0                       # Number of snoops hitting in the snoop filter with multiple (>1) holders of the requested data.
system.tol3bus.pwrStateResidencyTicks::UNDEFINED 437218964500                       # Cumulative time (in ticks) in various power states
system.tol3bus.trans_dist::ReadResp          10068547                       # Transaction distribution
system.tol3bus.trans_dist::WritebackDirty      7963606                       # Transaction distribution
system.tol3bus.trans_dist::CleanEvict        12171421                       # Transaction distribution
system.tol3bus.trans_dist::UpgradeReq            1168                       # Transaction distribution
system.tol3bus.trans_dist::UpgradeResp           1168                       # Transaction distribution
system.tol3bus.trans_dist::ReadExReq          2343011                       # Transaction distribution
system.tol3bus.trans_dist::ReadExResp         2343010                       # Transaction distribution
system.tol3bus.trans_dist::ReadSharedReq     10068549                       # Transaction distribution
system.tol3bus.pkt_count_system.cpu0.l2cache.mem_side::system.l3.cpu_side      9327772                       # Packet count per connected master and slave (bytes)
system.tol3bus.pkt_count_system.cpu1.l2cache.mem_side::system.l3.cpu_side      9234760                       # Packet count per connected master and slave (bytes)
system.tol3bus.pkt_count_system.cpu2.l2cache.mem_side::system.l3.cpu_side      9368278                       # Packet count per connected master and slave (bytes)
system.tol3bus.pkt_count_system.cpu3.l2cache.mem_side::system.l3.cpu_side      9363578                       # Packet count per connected master and slave (bytes)
system.tol3bus.pkt_count::total              37294388                       # Packet count per connected master and slave (bytes)
system.tol3bus.pkt_size_system.cpu0.l2cache.mem_side::system.l3.cpu_side    277753088                       # Cumulative packet size per connected master and slave (bytes)
system.tol3bus.pkt_size_system.cpu1.l2cache.mem_side::system.l3.cpu_side    274612672                       # Cumulative packet size per connected master and slave (bytes)
system.tol3bus.pkt_size_system.cpu2.l2cache.mem_side::system.l3.cpu_side    278478912                       # Cumulative packet size per connected master and slave (bytes)
system.tol3bus.pkt_size_system.cpu3.l2cache.mem_side::system.l3.cpu_side    278266048                       # Cumulative packet size per connected master and slave (bytes)
system.tol3bus.pkt_size::total             1109110720                       # Cumulative packet size per connected master and slave (bytes)
system.tol3bus.snoops                         7666092                       # Total snoops (count)
system.tol3bus.snoopTraffic                 194899712                       # Total snoop traffic (bytes)
system.tol3bus.snoop_fanout::samples         20078820                       # Request fanout histogram
system.tol3bus.snoop_fanout::mean            0.001848                       # Request fanout histogram
system.tol3bus.snoop_fanout::stdev           0.042949                       # Request fanout histogram
system.tol3bus.snoop_fanout::underflows             0      0.00%      0.00% # Request fanout histogram
system.tol3bus.snoop_fanout::0               20041714     99.82%     99.82% # Request fanout histogram
system.tol3bus.snoop_fanout::1                  37106      0.18%    100.00% # Request fanout histogram
system.tol3bus.snoop_fanout::2                      0      0.00%    100.00% # Request fanout histogram
system.tol3bus.snoop_fanout::3                      0      0.00%    100.00% # Request fanout histogram
system.tol3bus.snoop_fanout::4                      0      0.00%    100.00% # Request fanout histogram
system.tol3bus.snoop_fanout::overflows              0      0.00%    100.00% # Request fanout histogram
system.tol3bus.snoop_fanout::min_value              0                       # Request fanout histogram
system.tol3bus.snoop_fanout::max_value              1                       # Request fanout histogram
system.tol3bus.snoop_fanout::total           20078820                       # Request fanout histogram
system.tol3bus.reqLayer0.occupancy         8679564750                       # Layer occupancy (ticks)
system.tol3bus.reqLayer0.utilization              2.3                       # Layer utilization (%)
system.tol3bus.respLayer0.occupancy        2328809539                       # Layer occupancy (ticks)
system.tol3bus.respLayer0.utilization             0.6                       # Layer utilization (%)
system.tol3bus.respLayer1.occupancy        2306410338                       # Layer occupancy (ticks)
system.tol3bus.respLayer1.utilization             0.6                       # Layer utilization (%)
system.tol3bus.respLayer2.occupancy        2339292264                       # Layer occupancy (ticks)
system.tol3bus.respLayer2.utilization             0.6                       # Layer utilization (%)
system.tol3bus.respLayer3.occupancy        2338023241                       # Layer occupancy (ticks)
system.tol3bus.respLayer3.utilization             0.6                       # Layer utilization (%)

---------- End Simulation Statistics   ----------
