
---------- Begin Simulation Statistics ----------
sim_seconds                                  0.820232                       # Number of seconds simulated
sim_ticks                                820232262440                       # Number of ticks simulated
final_tick                               1054947092000                       # Number of ticks from beginning of simulation (restored from checkpoints and never reset)
sim_freq                                 1000000000000                       # Frequency of simulated ticks
host_inst_rate                                  81074                       # Simulator instruction rate (inst/s)
host_op_rate                                   151451                       # Simulator op (including micro ops) rate (op/s)
host_tick_rate                               23771149                       # Simulator tick rate (ticks/s)
host_mem_usage                               17516200                       # Number of bytes of host memory used
host_seconds                                 34505.37                       # Real time elapsed on the host
sim_insts                                  2797504413                       # Number of instructions simulated
sim_ops                                    5225868358                       # Number of ops (including micro ops) simulated
system.voltage_domain.voltage                       1                       # Voltage in Volts
system.clk_domain.clock                          1000                       # Clock period in ticks
system.mem_ctrls0.pwrStateResidencyTicks::UNDEFINED 1054947092000                       # Cumulative time (in ticks) in various power states
system.mem_ctrls0.bytes_read::.switch_cpus_10.inst        11712                       # Number of bytes read from this memory
system.mem_ctrls0.bytes_read::.switch_cpus_10.data    548197824                       # Number of bytes read from this memory
system.mem_ctrls0.bytes_read::.switch_cpus_11.inst        11904                       # Number of bytes read from this memory
system.mem_ctrls0.bytes_read::.switch_cpus_11.data    545175424                       # Number of bytes read from this memory
system.mem_ctrls0.bytes_read::.switch_cpus_12.inst        11264                       # Number of bytes read from this memory
system.mem_ctrls0.bytes_read::.switch_cpus_12.data    547791232                       # Number of bytes read from this memory
system.mem_ctrls0.bytes_read::.switch_cpus_13.inst        10880                       # Number of bytes read from this memory
system.mem_ctrls0.bytes_read::.switch_cpus_13.data    547466624                       # Number of bytes read from this memory
system.mem_ctrls0.bytes_read::total        2188676864                       # Number of bytes read from this memory
system.mem_ctrls0.bytes_inst_read::.switch_cpus_10.inst        11712                       # Number of instructions bytes read from this memory
system.mem_ctrls0.bytes_inst_read::.switch_cpus_11.inst        11904                       # Number of instructions bytes read from this memory
system.mem_ctrls0.bytes_inst_read::.switch_cpus_12.inst        11264                       # Number of instructions bytes read from this memory
system.mem_ctrls0.bytes_inst_read::.switch_cpus_13.inst        10880                       # Number of instructions bytes read from this memory
system.mem_ctrls0.bytes_inst_read::total        45760                       # Number of instructions bytes read from this memory
system.mem_ctrls0.bytes_written::.writebacks    565786432                       # Number of bytes written to this memory
system.mem_ctrls0.bytes_written::total      565786432                       # Number of bytes written to this memory
system.mem_ctrls0.num_reads::.switch_cpus_10.inst          183                       # Number of read requests responded to by this memory
system.mem_ctrls0.num_reads::.switch_cpus_10.data      8565591                       # Number of read requests responded to by this memory
system.mem_ctrls0.num_reads::.switch_cpus_11.inst          186                       # Number of read requests responded to by this memory
system.mem_ctrls0.num_reads::.switch_cpus_11.data      8518366                       # Number of read requests responded to by this memory
system.mem_ctrls0.num_reads::.switch_cpus_12.inst          176                       # Number of read requests responded to by this memory
system.mem_ctrls0.num_reads::.switch_cpus_12.data      8559238                       # Number of read requests responded to by this memory
system.mem_ctrls0.num_reads::.switch_cpus_13.inst          170                       # Number of read requests responded to by this memory
system.mem_ctrls0.num_reads::.switch_cpus_13.data      8554166                       # Number of read requests responded to by this memory
system.mem_ctrls0.num_reads::total           34198076                       # Number of read requests responded to by this memory
system.mem_ctrls0.num_writes::.writebacks      8840413                       # Number of write requests responded to by this memory
system.mem_ctrls0.num_writes::total           8840413                       # Number of write requests responded to by this memory
system.mem_ctrls0.bw_read::.switch_cpus_10.inst        14279                       # Total read bandwidth from this memory (bytes/s)
system.mem_ctrls0.bw_read::.switch_cpus_10.data    668344625                       # Total read bandwidth from this memory (bytes/s)
system.mem_ctrls0.bw_read::.switch_cpus_11.inst        14513                       # Total read bandwidth from this memory (bytes/s)
system.mem_ctrls0.bw_read::.switch_cpus_11.data    664659815                       # Total read bandwidth from this memory (bytes/s)
system.mem_ctrls0.bw_read::.switch_cpus_12.inst        13733                       # Total read bandwidth from this memory (bytes/s)
system.mem_ctrls0.bw_read::.switch_cpus_12.data    667848922                       # Total read bandwidth from this memory (bytes/s)
system.mem_ctrls0.bw_read::.switch_cpus_13.inst        13265                       # Total read bandwidth from this memory (bytes/s)
system.mem_ctrls0.bw_read::.switch_cpus_13.data    667453170                       # Total read bandwidth from this memory (bytes/s)
system.mem_ctrls0.bw_read::total           2668362322                       # Total read bandwidth from this memory (bytes/s)
system.mem_ctrls0.bw_inst_read::.switch_cpus_10.inst        14279                       # Instruction read bandwidth from this memory (bytes/s)
system.mem_ctrls0.bw_inst_read::.switch_cpus_11.inst        14513                       # Instruction read bandwidth from this memory (bytes/s)
system.mem_ctrls0.bw_inst_read::.switch_cpus_12.inst        13733                       # Instruction read bandwidth from this memory (bytes/s)
system.mem_ctrls0.bw_inst_read::.switch_cpus_13.inst        13265                       # Instruction read bandwidth from this memory (bytes/s)
system.mem_ctrls0.bw_inst_read::total           55789                       # Instruction read bandwidth from this memory (bytes/s)
system.mem_ctrls0.bw_write::.writebacks     689788073                       # Write bandwidth from this memory (bytes/s)
system.mem_ctrls0.bw_write::total           689788073                       # Write bandwidth from this memory (bytes/s)
system.mem_ctrls0.bw_total::.writebacks     689788073                       # Total bandwidth to/from this memory (bytes/s)
system.mem_ctrls0.bw_total::.switch_cpus_10.inst        14279                       # Total bandwidth to/from this memory (bytes/s)
system.mem_ctrls0.bw_total::.switch_cpus_10.data    668344625                       # Total bandwidth to/from this memory (bytes/s)
system.mem_ctrls0.bw_total::.switch_cpus_11.inst        14513                       # Total bandwidth to/from this memory (bytes/s)
system.mem_ctrls0.bw_total::.switch_cpus_11.data    664659815                       # Total bandwidth to/from this memory (bytes/s)
system.mem_ctrls0.bw_total::.switch_cpus_12.inst        13733                       # Total bandwidth to/from this memory (bytes/s)
system.mem_ctrls0.bw_total::.switch_cpus_12.data    667848922                       # Total bandwidth to/from this memory (bytes/s)
system.mem_ctrls0.bw_total::.switch_cpus_13.inst        13265                       # Total bandwidth to/from this memory (bytes/s)
system.mem_ctrls0.bw_total::.switch_cpus_13.data    667453170                       # Total bandwidth to/from this memory (bytes/s)
system.mem_ctrls0.bw_total::total          3358150395                       # Total bandwidth to/from this memory (bytes/s)
system.mem_ctrls0.avgPriority_.writebacks::samples   8840413.00                       # Average QoS priority value for accepted requests
system.mem_ctrls0.avgPriority_.switch_cpus_10.inst::samples       183.00                       # Average QoS priority value for accepted requests
system.mem_ctrls0.avgPriority_.switch_cpus_10.data::samples   8565135.00                       # Average QoS priority value for accepted requests
system.mem_ctrls0.avgPriority_.switch_cpus_11.inst::samples       186.00                       # Average QoS priority value for accepted requests
system.mem_ctrls0.avgPriority_.switch_cpus_11.data::samples   8517422.00                       # Average QoS priority value for accepted requests
system.mem_ctrls0.avgPriority_.switch_cpus_12.inst::samples       176.00                       # Average QoS priority value for accepted requests
system.mem_ctrls0.avgPriority_.switch_cpus_12.data::samples   8558559.00                       # Average QoS priority value for accepted requests
system.mem_ctrls0.avgPriority_.switch_cpus_13.inst::samples       170.00                       # Average QoS priority value for accepted requests
system.mem_ctrls0.avgPriority_.switch_cpus_13.data::samples   8553556.00                       # Average QoS priority value for accepted requests
system.mem_ctrls0.priorityMinLatency     0.000000017860                       # per QoS priority minimum request to response latency (s)
system.mem_ctrls0.priorityMaxLatency     0.000703615940                       # per QoS priority maximum request to response latency (s)
system.mem_ctrls0.numReadWriteTurnArounds       545636                       # Number of turnarounds from READ to WRITE
system.mem_ctrls0.numWriteReadTurnArounds       545636                       # Number of turnarounds from WRITE to READ
system.mem_ctrls0.numStayReadState           64308475                       # Number of times bus staying in READ state
system.mem_ctrls0.numStayWriteState           8301394                       # Number of times bus staying in WRITE state
system.mem_ctrls0.readReqs                   34198077                       # Number of read requests accepted
system.mem_ctrls0.writeReqs                   8840413                       # Number of write requests accepted
system.mem_ctrls0.readBursts                 34198077                       # Number of DRAM read bursts, including those serviced by the write queue
system.mem_ctrls0.writeBursts                 8840413                       # Number of DRAM write bursts, including those merged in the write queue
system.mem_ctrls0.bytesReadDRAM            2188504768                       # Total number of bytes read from DRAM
system.mem_ctrls0.bytesReadWrQ                 172160                       # Total number of bytes read from write queue
system.mem_ctrls0.bytesWritten              565782784                       # Total number of bytes written to DRAM
system.mem_ctrls0.bytesReadSys             2188676928                       # Total read bytes from the system interface side
system.mem_ctrls0.bytesWrittenSys           565786432                       # Total written bytes from the system interface side
system.mem_ctrls0.servicedByWrQ                  2690                       # Number of DRAM read bursts serviced by the write queue
system.mem_ctrls0.mergedWrBursts                    0                       # Number of DRAM write bursts merged with an existing one
system.mem_ctrls0.neitherReadNorWriteReqs            0                       # Number of requests that are neither read nor write
system.mem_ctrls0.perBankRdBursts::0          1065653                       # Per bank write bursts
system.mem_ctrls0.perBankRdBursts::1          1065695                       # Per bank write bursts
system.mem_ctrls0.perBankRdBursts::2          1067552                       # Per bank write bursts
system.mem_ctrls0.perBankRdBursts::3          1053182                       # Per bank write bursts
system.mem_ctrls0.perBankRdBursts::4          1057470                       # Per bank write bursts
system.mem_ctrls0.perBankRdBursts::5          1067101                       # Per bank write bursts
system.mem_ctrls0.perBankRdBursts::6          1061166                       # Per bank write bursts
system.mem_ctrls0.perBankRdBursts::7          1060351                       # Per bank write bursts
system.mem_ctrls0.perBankRdBursts::8          1058383                       # Per bank write bursts
system.mem_ctrls0.perBankRdBursts::9          1063794                       # Per bank write bursts
system.mem_ctrls0.perBankRdBursts::10         1065278                       # Per bank write bursts
system.mem_ctrls0.perBankRdBursts::11         1052888                       # Per bank write bursts
system.mem_ctrls0.perBankRdBursts::12         1053315                       # Per bank write bursts
system.mem_ctrls0.perBankRdBursts::13         1056869                       # Per bank write bursts
system.mem_ctrls0.perBankRdBursts::14         1071039                       # Per bank write bursts
system.mem_ctrls0.perBankRdBursts::15         1070453                       # Per bank write bursts
system.mem_ctrls0.perBankRdBursts::16         1072719                       # Per bank write bursts
system.mem_ctrls0.perBankRdBursts::17         1074695                       # Per bank write bursts
system.mem_ctrls0.perBankRdBursts::18         1071095                       # Per bank write bursts
system.mem_ctrls0.perBankRdBursts::19         1070274                       # Per bank write bursts
system.mem_ctrls0.perBankRdBursts::20         1071106                       # Per bank write bursts
system.mem_ctrls0.perBankRdBursts::21         1075125                       # Per bank write bursts
system.mem_ctrls0.perBankRdBursts::22         1077438                       # Per bank write bursts
system.mem_ctrls0.perBankRdBursts::23         1081004                       # Per bank write bursts
system.mem_ctrls0.perBankRdBursts::24         1084434                       # Per bank write bursts
system.mem_ctrls0.perBankRdBursts::25         1072748                       # Per bank write bursts
system.mem_ctrls0.perBankRdBursts::26         1075043                       # Per bank write bursts
system.mem_ctrls0.perBankRdBursts::27         1069688                       # Per bank write bursts
system.mem_ctrls0.perBankRdBursts::28         1075105                       # Per bank write bursts
system.mem_ctrls0.perBankRdBursts::29         1079309                       # Per bank write bursts
system.mem_ctrls0.perBankRdBursts::30         1080568                       # Per bank write bursts
system.mem_ctrls0.perBankRdBursts::31         1074847                       # Per bank write bursts
system.mem_ctrls0.perBankWrBursts::0           276573                       # Per bank write bursts
system.mem_ctrls0.perBankWrBursts::1           276610                       # Per bank write bursts
system.mem_ctrls0.perBankWrBursts::2           276513                       # Per bank write bursts
system.mem_ctrls0.perBankWrBursts::3           276190                       # Per bank write bursts
system.mem_ctrls0.perBankWrBursts::4           276592                       # Per bank write bursts
system.mem_ctrls0.perBankWrBursts::5           279472                       # Per bank write bursts
system.mem_ctrls0.perBankWrBursts::6           276639                       # Per bank write bursts
system.mem_ctrls0.perBankWrBursts::7           276580                       # Per bank write bursts
system.mem_ctrls0.perBankWrBursts::8           275704                       # Per bank write bursts
system.mem_ctrls0.perBankWrBursts::9           275775                       # Per bank write bursts
system.mem_ctrls0.perBankWrBursts::10          275466                       # Per bank write bursts
system.mem_ctrls0.perBankWrBursts::11          275796                       # Per bank write bursts
system.mem_ctrls0.perBankWrBursts::12          277799                       # Per bank write bursts
system.mem_ctrls0.perBankWrBursts::13          275205                       # Per bank write bursts
system.mem_ctrls0.perBankWrBursts::14          275321                       # Per bank write bursts
system.mem_ctrls0.perBankWrBursts::15          275970                       # Per bank write bursts
system.mem_ctrls0.perBankWrBursts::16          276224                       # Per bank write bursts
system.mem_ctrls0.perBankWrBursts::17          280038                       # Per bank write bursts
system.mem_ctrls0.perBankWrBursts::18          275350                       # Per bank write bursts
system.mem_ctrls0.perBankWrBursts::19          269983                       # Per bank write bursts
system.mem_ctrls0.perBankWrBursts::20          270896                       # Per bank write bursts
system.mem_ctrls0.perBankWrBursts::21          270758                       # Per bank write bursts
system.mem_ctrls0.perBankWrBursts::22          277773                       # Per bank write bursts
system.mem_ctrls0.perBankWrBursts::23          277822                       # Per bank write bursts
system.mem_ctrls0.perBankWrBursts::24          280409                       # Per bank write bursts
system.mem_ctrls0.perBankWrBursts::25          277089                       # Per bank write bursts
system.mem_ctrls0.perBankWrBursts::26          276923                       # Per bank write bursts
system.mem_ctrls0.perBankWrBursts::27          276777                       # Per bank write bursts
system.mem_ctrls0.perBankWrBursts::28          276880                       # Per bank write bursts
system.mem_ctrls0.perBankWrBursts::29          276691                       # Per bank write bursts
system.mem_ctrls0.perBankWrBursts::30          276905                       # Per bank write bursts
system.mem_ctrls0.perBankWrBursts::31          277633                       # Per bank write bursts
system.mem_ctrls0.numRdRetry                        0                       # Number of times read queue was full causing retry
system.mem_ctrls0.numWrRetry                        0                       # Number of times write queue was full causing retry
system.mem_ctrls0.totGap                 820243446500                       # Total gap between requests
system.mem_ctrls0.readPktSize::0                    0                       # Read request sizes (log2)
system.mem_ctrls0.readPktSize::1                    0                       # Read request sizes (log2)
system.mem_ctrls0.readPktSize::2                    0                       # Read request sizes (log2)
system.mem_ctrls0.readPktSize::3                    0                       # Read request sizes (log2)
system.mem_ctrls0.readPktSize::4                    0                       # Read request sizes (log2)
system.mem_ctrls0.readPktSize::5                    0                       # Read request sizes (log2)
system.mem_ctrls0.readPktSize::6             34198077                       # Read request sizes (log2)
system.mem_ctrls0.writePktSize::0                   0                       # Write request sizes (log2)
system.mem_ctrls0.writePktSize::1                   0                       # Write request sizes (log2)
system.mem_ctrls0.writePktSize::2                   0                       # Write request sizes (log2)
system.mem_ctrls0.writePktSize::3                   0                       # Write request sizes (log2)
system.mem_ctrls0.writePktSize::4                   0                       # Write request sizes (log2)
system.mem_ctrls0.writePktSize::5                   0                       # Write request sizes (log2)
system.mem_ctrls0.writePktSize::6             8840413                       # Write request sizes (log2)
system.mem_ctrls0.rdQLenPdf::0                5220814                       # What read queue length does an incoming req see
system.mem_ctrls0.rdQLenPdf::1                7638114                       # What read queue length does an incoming req see
system.mem_ctrls0.rdQLenPdf::2                7782707                       # What read queue length does an incoming req see
system.mem_ctrls0.rdQLenPdf::3                6072158                       # What read queue length does an incoming req see
system.mem_ctrls0.rdQLenPdf::4                3822318                       # What read queue length does an incoming req see
system.mem_ctrls0.rdQLenPdf::5                2035279                       # What read queue length does an incoming req see
system.mem_ctrls0.rdQLenPdf::6                 960221                       # What read queue length does an incoming req see
system.mem_ctrls0.rdQLenPdf::7                 420295                       # What read queue length does an incoming req see
system.mem_ctrls0.rdQLenPdf::8                 158338                       # What read queue length does an incoming req see
system.mem_ctrls0.rdQLenPdf::9                  58181                       # What read queue length does an incoming req see
system.mem_ctrls0.rdQLenPdf::10                 19386                       # What read queue length does an incoming req see
system.mem_ctrls0.rdQLenPdf::11                  5738                       # What read queue length does an incoming req see
system.mem_ctrls0.rdQLenPdf::12                  1375                       # What read queue length does an incoming req see
system.mem_ctrls0.rdQLenPdf::13                   340                       # What read queue length does an incoming req see
system.mem_ctrls0.rdQLenPdf::14                    82                       # What read queue length does an incoming req see
system.mem_ctrls0.rdQLenPdf::15                    41                       # What read queue length does an incoming req see
system.mem_ctrls0.rdQLenPdf::16                     0                       # What read queue length does an incoming req see
system.mem_ctrls0.rdQLenPdf::17                     0                       # What read queue length does an incoming req see
system.mem_ctrls0.rdQLenPdf::18                     0                       # What read queue length does an incoming req see
system.mem_ctrls0.rdQLenPdf::19                     0                       # What read queue length does an incoming req see
system.mem_ctrls0.rdQLenPdf::20                     0                       # What read queue length does an incoming req see
system.mem_ctrls0.rdQLenPdf::21                     0                       # What read queue length does an incoming req see
system.mem_ctrls0.rdQLenPdf::22                     0                       # What read queue length does an incoming req see
system.mem_ctrls0.rdQLenPdf::23                     0                       # What read queue length does an incoming req see
system.mem_ctrls0.rdQLenPdf::24                     0                       # What read queue length does an incoming req see
system.mem_ctrls0.rdQLenPdf::25                     0                       # What read queue length does an incoming req see
system.mem_ctrls0.rdQLenPdf::26                     0                       # What read queue length does an incoming req see
system.mem_ctrls0.rdQLenPdf::27                     0                       # What read queue length does an incoming req see
system.mem_ctrls0.rdQLenPdf::28                     0                       # What read queue length does an incoming req see
system.mem_ctrls0.rdQLenPdf::29                     0                       # What read queue length does an incoming req see
system.mem_ctrls0.rdQLenPdf::30                     0                       # What read queue length does an incoming req see
system.mem_ctrls0.rdQLenPdf::31                     0                       # What read queue length does an incoming req see
system.mem_ctrls0.rdQLenPdf::32                     0                       # What read queue length does an incoming req see
system.mem_ctrls0.rdQLenPdf::33                     0                       # What read queue length does an incoming req see
system.mem_ctrls0.rdQLenPdf::34                     0                       # What read queue length does an incoming req see
system.mem_ctrls0.rdQLenPdf::35                     0                       # What read queue length does an incoming req see
system.mem_ctrls0.rdQLenPdf::36                     0                       # What read queue length does an incoming req see
system.mem_ctrls0.rdQLenPdf::37                     0                       # What read queue length does an incoming req see
system.mem_ctrls0.rdQLenPdf::38                     0                       # What read queue length does an incoming req see
system.mem_ctrls0.rdQLenPdf::39                     0                       # What read queue length does an incoming req see
system.mem_ctrls0.rdQLenPdf::40                     0                       # What read queue length does an incoming req see
system.mem_ctrls0.rdQLenPdf::41                     0                       # What read queue length does an incoming req see
system.mem_ctrls0.rdQLenPdf::42                     0                       # What read queue length does an incoming req see
system.mem_ctrls0.rdQLenPdf::43                     0                       # What read queue length does an incoming req see
system.mem_ctrls0.rdQLenPdf::44                     0                       # What read queue length does an incoming req see
system.mem_ctrls0.rdQLenPdf::45                     0                       # What read queue length does an incoming req see
system.mem_ctrls0.rdQLenPdf::46                     0                       # What read queue length does an incoming req see
system.mem_ctrls0.rdQLenPdf::47                     0                       # What read queue length does an incoming req see
system.mem_ctrls0.rdQLenPdf::48                     0                       # What read queue length does an incoming req see
system.mem_ctrls0.rdQLenPdf::49                     0                       # What read queue length does an incoming req see
system.mem_ctrls0.rdQLenPdf::50                     0                       # What read queue length does an incoming req see
system.mem_ctrls0.rdQLenPdf::51                     0                       # What read queue length does an incoming req see
system.mem_ctrls0.rdQLenPdf::52                     0                       # What read queue length does an incoming req see
system.mem_ctrls0.rdQLenPdf::53                     0                       # What read queue length does an incoming req see
system.mem_ctrls0.rdQLenPdf::54                     0                       # What read queue length does an incoming req see
system.mem_ctrls0.rdQLenPdf::55                     0                       # What read queue length does an incoming req see
system.mem_ctrls0.rdQLenPdf::56                     0                       # What read queue length does an incoming req see
system.mem_ctrls0.rdQLenPdf::57                     0                       # What read queue length does an incoming req see
system.mem_ctrls0.rdQLenPdf::58                     0                       # What read queue length does an incoming req see
system.mem_ctrls0.rdQLenPdf::59                     0                       # What read queue length does an incoming req see
system.mem_ctrls0.rdQLenPdf::60                     0                       # What read queue length does an incoming req see
system.mem_ctrls0.rdQLenPdf::61                     0                       # What read queue length does an incoming req see
system.mem_ctrls0.rdQLenPdf::62                     0                       # What read queue length does an incoming req see
system.mem_ctrls0.rdQLenPdf::63                     0                       # What read queue length does an incoming req see
system.mem_ctrls0.wrQLenPdf::0                      1                       # What write queue length does an incoming req see
system.mem_ctrls0.wrQLenPdf::1                      1                       # What write queue length does an incoming req see
system.mem_ctrls0.wrQLenPdf::2                      1                       # What write queue length does an incoming req see
system.mem_ctrls0.wrQLenPdf::3                      1                       # What write queue length does an incoming req see
system.mem_ctrls0.wrQLenPdf::4                      1                       # What write queue length does an incoming req see
system.mem_ctrls0.wrQLenPdf::5                      1                       # What write queue length does an incoming req see
system.mem_ctrls0.wrQLenPdf::6                      1                       # What write queue length does an incoming req see
system.mem_ctrls0.wrQLenPdf::7                      1                       # What write queue length does an incoming req see
system.mem_ctrls0.wrQLenPdf::8                      1                       # What write queue length does an incoming req see
system.mem_ctrls0.wrQLenPdf::9                      1                       # What write queue length does an incoming req see
system.mem_ctrls0.wrQLenPdf::10                     1                       # What write queue length does an incoming req see
system.mem_ctrls0.wrQLenPdf::11                     1                       # What write queue length does an incoming req see
system.mem_ctrls0.wrQLenPdf::12                     1                       # What write queue length does an incoming req see
system.mem_ctrls0.wrQLenPdf::13                     1                       # What write queue length does an incoming req see
system.mem_ctrls0.wrQLenPdf::14                     1                       # What write queue length does an incoming req see
system.mem_ctrls0.wrQLenPdf::15                     1                       # What write queue length does an incoming req see
system.mem_ctrls0.wrQLenPdf::16                     1                       # What write queue length does an incoming req see
system.mem_ctrls0.wrQLenPdf::17                     1                       # What write queue length does an incoming req see
system.mem_ctrls0.wrQLenPdf::18                     1                       # What write queue length does an incoming req see
system.mem_ctrls0.wrQLenPdf::19                     1                       # What write queue length does an incoming req see
system.mem_ctrls0.wrQLenPdf::20                     1                       # What write queue length does an incoming req see
system.mem_ctrls0.wrQLenPdf::21                     1                       # What write queue length does an incoming req see
system.mem_ctrls0.wrQLenPdf::22                     1                       # What write queue length does an incoming req see
system.mem_ctrls0.wrQLenPdf::23                     1                       # What write queue length does an incoming req see
system.mem_ctrls0.wrQLenPdf::24                     1                       # What write queue length does an incoming req see
system.mem_ctrls0.wrQLenPdf::25                     1                       # What write queue length does an incoming req see
system.mem_ctrls0.wrQLenPdf::26                     1                       # What write queue length does an incoming req see
system.mem_ctrls0.wrQLenPdf::27                     1                       # What write queue length does an incoming req see
system.mem_ctrls0.wrQLenPdf::28                     1                       # What write queue length does an incoming req see
system.mem_ctrls0.wrQLenPdf::29                     1                       # What write queue length does an incoming req see
system.mem_ctrls0.wrQLenPdf::30                     1                       # What write queue length does an incoming req see
system.mem_ctrls0.wrQLenPdf::31                     1                       # What write queue length does an incoming req see
system.mem_ctrls0.wrQLenPdf::32                     1                       # What write queue length does an incoming req see
system.mem_ctrls0.wrQLenPdf::33                     1                       # What write queue length does an incoming req see
system.mem_ctrls0.wrQLenPdf::34                     1                       # What write queue length does an incoming req see
system.mem_ctrls0.wrQLenPdf::35                     1                       # What write queue length does an incoming req see
system.mem_ctrls0.wrQLenPdf::36                     1                       # What write queue length does an incoming req see
system.mem_ctrls0.wrQLenPdf::37                     1                       # What write queue length does an incoming req see
system.mem_ctrls0.wrQLenPdf::38                     1                       # What write queue length does an incoming req see
system.mem_ctrls0.wrQLenPdf::39                     1                       # What write queue length does an incoming req see
system.mem_ctrls0.wrQLenPdf::40                     1                       # What write queue length does an incoming req see
system.mem_ctrls0.wrQLenPdf::41                     1                       # What write queue length does an incoming req see
system.mem_ctrls0.wrQLenPdf::42                     1                       # What write queue length does an incoming req see
system.mem_ctrls0.wrQLenPdf::43                     1                       # What write queue length does an incoming req see
system.mem_ctrls0.wrQLenPdf::44                     1                       # What write queue length does an incoming req see
system.mem_ctrls0.wrQLenPdf::45                     1                       # What write queue length does an incoming req see
system.mem_ctrls0.wrQLenPdf::46                     1                       # What write queue length does an incoming req see
system.mem_ctrls0.wrQLenPdf::47                 32277                       # What write queue length does an incoming req see
system.mem_ctrls0.wrQLenPdf::48                 38745                       # What write queue length does an incoming req see
system.mem_ctrls0.wrQLenPdf::49                245794                       # What write queue length does an incoming req see
system.mem_ctrls0.wrQLenPdf::50                418527                       # What write queue length does an incoming req see
system.mem_ctrls0.wrQLenPdf::51                505157                       # What write queue length does an incoming req see
system.mem_ctrls0.wrQLenPdf::52                538704                       # What write queue length does an incoming req see
system.mem_ctrls0.wrQLenPdf::53                555750                       # What write queue length does an incoming req see
system.mem_ctrls0.wrQLenPdf::54                566830                       # What write queue length does an incoming req see
system.mem_ctrls0.wrQLenPdf::55                577234                       # What write queue length does an incoming req see
system.mem_ctrls0.wrQLenPdf::56                582023                       # What write queue length does an incoming req see
system.mem_ctrls0.wrQLenPdf::57                584061                       # What write queue length does an incoming req see
system.mem_ctrls0.wrQLenPdf::58                586577                       # What write queue length does an incoming req see
system.mem_ctrls0.wrQLenPdf::59                591634                       # What write queue length does an incoming req see
system.mem_ctrls0.wrQLenPdf::60                589858                       # What write queue length does an incoming req see
system.mem_ctrls0.wrQLenPdf::61                588087                       # What write queue length does an incoming req see
system.mem_ctrls0.wrQLenPdf::62                589482                       # What write queue length does an incoming req see
system.mem_ctrls0.wrQLenPdf::63                586210                       # What write queue length does an incoming req see
system.mem_ctrls0.wrQLenPdf::64                594924                       # What write queue length does an incoming req see
system.mem_ctrls0.wrQLenPdf::65                 34116                       # What write queue length does an incoming req see
system.mem_ctrls0.wrQLenPdf::66                 13739                       # What write queue length does an incoming req see
system.mem_ctrls0.wrQLenPdf::67                  7284                       # What write queue length does an incoming req see
system.mem_ctrls0.wrQLenPdf::68                  4297                       # What write queue length does an incoming req see
system.mem_ctrls0.wrQLenPdf::69                  2632                       # What write queue length does an incoming req see
system.mem_ctrls0.wrQLenPdf::70                  1806                       # What write queue length does an incoming req see
system.mem_ctrls0.wrQLenPdf::71                  1260                       # What write queue length does an incoming req see
system.mem_ctrls0.wrQLenPdf::72                   898                       # What write queue length does an incoming req see
system.mem_ctrls0.wrQLenPdf::73                   728                       # What write queue length does an incoming req see
system.mem_ctrls0.wrQLenPdf::74                   546                       # What write queue length does an incoming req see
system.mem_ctrls0.wrQLenPdf::75                   390                       # What write queue length does an incoming req see
system.mem_ctrls0.wrQLenPdf::76                   285                       # What write queue length does an incoming req see
system.mem_ctrls0.wrQLenPdf::77                   187                       # What write queue length does an incoming req see
system.mem_ctrls0.wrQLenPdf::78                   128                       # What write queue length does an incoming req see
system.mem_ctrls0.wrQLenPdf::79                    76                       # What write queue length does an incoming req see
system.mem_ctrls0.wrQLenPdf::80                    43                       # What write queue length does an incoming req see
system.mem_ctrls0.wrQLenPdf::81                    19                       # What write queue length does an incoming req see
system.mem_ctrls0.wrQLenPdf::82                    16                       # What write queue length does an incoming req see
system.mem_ctrls0.wrQLenPdf::83                     8                       # What write queue length does an incoming req see
system.mem_ctrls0.wrQLenPdf::84                     6                       # What write queue length does an incoming req see
system.mem_ctrls0.wrQLenPdf::85                     3                       # What write queue length does an incoming req see
system.mem_ctrls0.wrQLenPdf::86                     3                       # What write queue length does an incoming req see
system.mem_ctrls0.wrQLenPdf::87                     3                       # What write queue length does an incoming req see
system.mem_ctrls0.wrQLenPdf::88                     5                       # What write queue length does an incoming req see
system.mem_ctrls0.wrQLenPdf::89                     3                       # What write queue length does an incoming req see
system.mem_ctrls0.wrQLenPdf::90                     1                       # What write queue length does an incoming req see
system.mem_ctrls0.wrQLenPdf::91                     1                       # What write queue length does an incoming req see
system.mem_ctrls0.wrQLenPdf::92                     1                       # What write queue length does an incoming req see
system.mem_ctrls0.wrQLenPdf::93                     2                       # What write queue length does an incoming req see
system.mem_ctrls0.wrQLenPdf::94                     1                       # What write queue length does an incoming req see
system.mem_ctrls0.wrQLenPdf::95                     1                       # What write queue length does an incoming req see
system.mem_ctrls0.wrQLenPdf::96                     1                       # What write queue length does an incoming req see
system.mem_ctrls0.wrQLenPdf::97                     1                       # What write queue length does an incoming req see
system.mem_ctrls0.wrQLenPdf::98                     1                       # What write queue length does an incoming req see
system.mem_ctrls0.wrQLenPdf::99                     1                       # What write queue length does an incoming req see
system.mem_ctrls0.wrQLenPdf::100                    0                       # What write queue length does an incoming req see
system.mem_ctrls0.wrQLenPdf::101                    0                       # What write queue length does an incoming req see
system.mem_ctrls0.wrQLenPdf::102                    0                       # What write queue length does an incoming req see
system.mem_ctrls0.wrQLenPdf::103                    0                       # What write queue length does an incoming req see
system.mem_ctrls0.wrQLenPdf::104                    0                       # What write queue length does an incoming req see
system.mem_ctrls0.wrQLenPdf::105                    0                       # What write queue length does an incoming req see
system.mem_ctrls0.wrQLenPdf::106                    0                       # What write queue length does an incoming req see
system.mem_ctrls0.wrQLenPdf::107                    0                       # What write queue length does an incoming req see
system.mem_ctrls0.wrQLenPdf::108                    0                       # What write queue length does an incoming req see
system.mem_ctrls0.wrQLenPdf::109                    0                       # What write queue length does an incoming req see
system.mem_ctrls0.wrQLenPdf::110                    0                       # What write queue length does an incoming req see
system.mem_ctrls0.wrQLenPdf::111                    0                       # What write queue length does an incoming req see
system.mem_ctrls0.wrQLenPdf::112                    0                       # What write queue length does an incoming req see
system.mem_ctrls0.wrQLenPdf::113                    0                       # What write queue length does an incoming req see
system.mem_ctrls0.wrQLenPdf::114                    0                       # What write queue length does an incoming req see
system.mem_ctrls0.wrQLenPdf::115                    0                       # What write queue length does an incoming req see
system.mem_ctrls0.wrQLenPdf::116                    0                       # What write queue length does an incoming req see
system.mem_ctrls0.wrQLenPdf::117                    0                       # What write queue length does an incoming req see
system.mem_ctrls0.wrQLenPdf::118                    0                       # What write queue length does an incoming req see
system.mem_ctrls0.wrQLenPdf::119                    0                       # What write queue length does an incoming req see
system.mem_ctrls0.wrQLenPdf::120                    0                       # What write queue length does an incoming req see
system.mem_ctrls0.wrQLenPdf::121                    0                       # What write queue length does an incoming req see
system.mem_ctrls0.wrQLenPdf::122                    0                       # What write queue length does an incoming req see
system.mem_ctrls0.wrQLenPdf::123                    0                       # What write queue length does an incoming req see
system.mem_ctrls0.wrQLenPdf::124                    0                       # What write queue length does an incoming req see
system.mem_ctrls0.wrQLenPdf::125                    0                       # What write queue length does an incoming req see
system.mem_ctrls0.wrQLenPdf::126                    0                       # What write queue length does an incoming req see
system.mem_ctrls0.wrQLenPdf::127                    0                       # What write queue length does an incoming req see
system.mem_ctrls0.bytesPerActivate::samples     24900711                       # Bytes accessed per row activation
system.mem_ctrls0.bytesPerActivate::mean   110.610679                       # Bytes accessed per row activation
system.mem_ctrls0.bytesPerActivate::gmean    84.608356                       # Bytes accessed per row activation
system.mem_ctrls0.bytesPerActivate::stdev   132.145884                       # Bytes accessed per row activation
system.mem_ctrls0.bytesPerActivate::0-127     19183731     77.04%     77.04% # Bytes accessed per row activation
system.mem_ctrls0.bytesPerActivate::128-255      3408917     13.69%     90.73% # Bytes accessed per row activation
system.mem_ctrls0.bytesPerActivate::256-383      1061050      4.26%     94.99% # Bytes accessed per row activation
system.mem_ctrls0.bytesPerActivate::384-511       526944      2.12%     97.11% # Bytes accessed per row activation
system.mem_ctrls0.bytesPerActivate::512-639       283423      1.14%     98.25% # Bytes accessed per row activation
system.mem_ctrls0.bytesPerActivate::640-767       125313      0.50%     98.75% # Bytes accessed per row activation
system.mem_ctrls0.bytesPerActivate::768-895        78318      0.31%     99.06% # Bytes accessed per row activation
system.mem_ctrls0.bytesPerActivate::896-1023        54660      0.22%     99.28% # Bytes accessed per row activation
system.mem_ctrls0.bytesPerActivate::1024-1151       178355      0.72%    100.00% # Bytes accessed per row activation
system.mem_ctrls0.bytesPerActivate::total     24900711                       # Bytes accessed per row activation
system.mem_ctrls0.rdPerTurnAround::samples       545636                       # Reads before turning the bus around for writes
system.mem_ctrls0.rdPerTurnAround::mean     62.670579                       # Reads before turning the bus around for writes
system.mem_ctrls0.rdPerTurnAround::gmean    46.765941                       # Reads before turning the bus around for writes
system.mem_ctrls0.rdPerTurnAround::stdev    85.179598                       # Reads before turning the bus around for writes
system.mem_ctrls0.rdPerTurnAround::0-63        419889     76.95%     76.95% # Reads before turning the bus around for writes
system.mem_ctrls0.rdPerTurnAround::64-127        83940     15.38%     92.34% # Reads before turning the bus around for writes
system.mem_ctrls0.rdPerTurnAround::128-191        23248      4.26%     96.60% # Reads before turning the bus around for writes
system.mem_ctrls0.rdPerTurnAround::192-255         8456      1.55%     98.15% # Reads before turning the bus around for writes
system.mem_ctrls0.rdPerTurnAround::256-319         2817      0.52%     98.66% # Reads before turning the bus around for writes
system.mem_ctrls0.rdPerTurnAround::320-383         1461      0.27%     98.93% # Reads before turning the bus around for writes
system.mem_ctrls0.rdPerTurnAround::384-447          958      0.18%     99.11% # Reads before turning the bus around for writes
system.mem_ctrls0.rdPerTurnAround::448-511          820      0.15%     99.26% # Reads before turning the bus around for writes
system.mem_ctrls0.rdPerTurnAround::512-575          751      0.14%     99.40% # Reads before turning the bus around for writes
system.mem_ctrls0.rdPerTurnAround::576-639          570      0.10%     99.50% # Reads before turning the bus around for writes
system.mem_ctrls0.rdPerTurnAround::640-703          461      0.08%     99.58% # Reads before turning the bus around for writes
system.mem_ctrls0.rdPerTurnAround::704-767          385      0.07%     99.66% # Reads before turning the bus around for writes
system.mem_ctrls0.rdPerTurnAround::768-831          359      0.07%     99.72% # Reads before turning the bus around for writes
system.mem_ctrls0.rdPerTurnAround::832-895          290      0.05%     99.77% # Reads before turning the bus around for writes
system.mem_ctrls0.rdPerTurnAround::896-959          275      0.05%     99.82% # Reads before turning the bus around for writes
system.mem_ctrls0.rdPerTurnAround::960-1023          187      0.03%     99.86% # Reads before turning the bus around for writes
system.mem_ctrls0.rdPerTurnAround::1024-1087          174      0.03%     99.89% # Reads before turning the bus around for writes
system.mem_ctrls0.rdPerTurnAround::1088-1151          120      0.02%     99.91% # Reads before turning the bus around for writes
system.mem_ctrls0.rdPerTurnAround::1152-1215          105      0.02%     99.93% # Reads before turning the bus around for writes
system.mem_ctrls0.rdPerTurnAround::1216-1279           83      0.02%     99.95% # Reads before turning the bus around for writes
system.mem_ctrls0.rdPerTurnAround::1280-1343           61      0.01%     99.96% # Reads before turning the bus around for writes
system.mem_ctrls0.rdPerTurnAround::1344-1407           61      0.01%     99.97% # Reads before turning the bus around for writes
system.mem_ctrls0.rdPerTurnAround::1408-1471           32      0.01%     99.98% # Reads before turning the bus around for writes
system.mem_ctrls0.rdPerTurnAround::1472-1535           19      0.00%     99.98% # Reads before turning the bus around for writes
system.mem_ctrls0.rdPerTurnAround::1536-1599           30      0.01%     99.98% # Reads before turning the bus around for writes
system.mem_ctrls0.rdPerTurnAround::1600-1663           16      0.00%     99.99% # Reads before turning the bus around for writes
system.mem_ctrls0.rdPerTurnAround::1664-1727           12      0.00%     99.99% # Reads before turning the bus around for writes
system.mem_ctrls0.rdPerTurnAround::1728-1791            9      0.00%     99.99% # Reads before turning the bus around for writes
system.mem_ctrls0.rdPerTurnAround::1792-1855           12      0.00%     99.99% # Reads before turning the bus around for writes
system.mem_ctrls0.rdPerTurnAround::1856-1919            9      0.00%    100.00% # Reads before turning the bus around for writes
system.mem_ctrls0.rdPerTurnAround::1920-1983            5      0.00%    100.00% # Reads before turning the bus around for writes
system.mem_ctrls0.rdPerTurnAround::1984-2047            2      0.00%    100.00% # Reads before turning the bus around for writes
system.mem_ctrls0.rdPerTurnAround::2048-2111            3      0.00%    100.00% # Reads before turning the bus around for writes
system.mem_ctrls0.rdPerTurnAround::2176-2239            3      0.00%    100.00% # Reads before turning the bus around for writes
system.mem_ctrls0.rdPerTurnAround::2240-2303            3      0.00%    100.00% # Reads before turning the bus around for writes
system.mem_ctrls0.rdPerTurnAround::2304-2367            1      0.00%    100.00% # Reads before turning the bus around for writes
system.mem_ctrls0.rdPerTurnAround::2432-2495            3      0.00%    100.00% # Reads before turning the bus around for writes
system.mem_ctrls0.rdPerTurnAround::2496-2559            1      0.00%    100.00% # Reads before turning the bus around for writes
system.mem_ctrls0.rdPerTurnAround::2688-2751            2      0.00%    100.00% # Reads before turning the bus around for writes
system.mem_ctrls0.rdPerTurnAround::2752-2815            1      0.00%    100.00% # Reads before turning the bus around for writes
system.mem_ctrls0.rdPerTurnAround::3264-3327            2      0.00%    100.00% # Reads before turning the bus around for writes
system.mem_ctrls0.rdPerTurnAround::total       545636                       # Reads before turning the bus around for writes
system.mem_ctrls0.wrPerTurnAround::samples       545636                       # Writes before turning the bus around for reads
system.mem_ctrls0.wrPerTurnAround::mean     16.201929                       # Writes before turning the bus around for reads
system.mem_ctrls0.wrPerTurnAround::gmean    16.185820                       # Writes before turning the bus around for reads
system.mem_ctrls0.wrPerTurnAround::stdev     0.769324                       # Writes before turning the bus around for reads
system.mem_ctrls0.wrPerTurnAround::16          503187     92.22%     92.22% # Writes before turning the bus around for reads
system.mem_ctrls0.wrPerTurnAround::17            5000      0.92%     93.14% # Writes before turning the bus around for reads
system.mem_ctrls0.wrPerTurnAround::18           19049      3.49%     96.63% # Writes before turning the bus around for reads
system.mem_ctrls0.wrPerTurnAround::19           11041      2.02%     98.65% # Writes before turning the bus around for reads
system.mem_ctrls0.wrPerTurnAround::20            4635      0.85%     99.50% # Writes before turning the bus around for reads
system.mem_ctrls0.wrPerTurnAround::21            1669      0.31%     99.81% # Writes before turning the bus around for reads
system.mem_ctrls0.wrPerTurnAround::22             634      0.12%     99.92% # Writes before turning the bus around for reads
system.mem_ctrls0.wrPerTurnAround::23             241      0.04%     99.97% # Writes before turning the bus around for reads
system.mem_ctrls0.wrPerTurnAround::24              93      0.02%     99.98% # Writes before turning the bus around for reads
system.mem_ctrls0.wrPerTurnAround::25              50      0.01%     99.99% # Writes before turning the bus around for reads
system.mem_ctrls0.wrPerTurnAround::26              20      0.00%    100.00% # Writes before turning the bus around for reads
system.mem_ctrls0.wrPerTurnAround::27              15      0.00%    100.00% # Writes before turning the bus around for reads
system.mem_ctrls0.wrPerTurnAround::28               2      0.00%    100.00% # Writes before turning the bus around for reads
system.mem_ctrls0.wrPerTurnAround::total       545636                       # Writes before turning the bus around for reads
system.mem_ctrls0.masterReadBytes::.switch_cpus_10.inst        11712                       # Per-master bytes read from memory
system.mem_ctrls0.masterReadBytes::.switch_cpus_10.data    548168640                       # Per-master bytes read from memory
system.mem_ctrls0.masterReadBytes::.switch_cpus_11.inst        11904                       # Per-master bytes read from memory
system.mem_ctrls0.masterReadBytes::.switch_cpus_11.data    545115008                       # Per-master bytes read from memory
system.mem_ctrls0.masterReadBytes::.switch_cpus_12.inst        11264                       # Per-master bytes read from memory
system.mem_ctrls0.masterReadBytes::.switch_cpus_12.data    547747776                       # Per-master bytes read from memory
system.mem_ctrls0.masterReadBytes::.switch_cpus_13.inst        10880                       # Per-master bytes read from memory
system.mem_ctrls0.masterReadBytes::.switch_cpus_13.data    547427584                       # Per-master bytes read from memory
system.mem_ctrls0.masterWriteBytes::.writebacks    565782784                       # Per-master bytes write to memory
system.mem_ctrls0.masterReadRate::.switch_cpus_10.inst 14278.882380412015                       # Per-master bytes read from memory rate (Bytes/sec)
system.mem_ctrls0.masterReadRate::.switch_cpus_10.data 668309045.012843012810                       # Per-master bytes read from memory rate (Bytes/sec)
system.mem_ctrls0.masterReadRate::.switch_cpus_11.inst 14512.962419435162                       # Per-master bytes read from memory rate (Bytes/sec)
system.mem_ctrls0.masterReadRate::.switch_cpus_11.data 664586158.045539140701                       # Per-master bytes read from memory rate (Bytes/sec)
system.mem_ctrls0.masterReadRate::.switch_cpus_12.inst 13732.695622691337                       # Per-master bytes read from memory rate (Bytes/sec)
system.mem_ctrls0.masterReadRate::.switch_cpus_12.data 667795941.567304253578                       # Per-master bytes read from memory rate (Bytes/sec)
system.mem_ctrls0.masterReadRate::.switch_cpus_13.inst 13264.535544645041                       # Per-master bytes read from memory rate (Bytes/sec)
system.mem_ctrls0.masterReadRate::.switch_cpus_13.data 667405574.088893294334                       # Per-master bytes read from memory rate (Bytes/sec)
system.mem_ctrls0.masterWriteRate::.writebacks 689783625.819506168365                       # Per-master bytes write to memory rate (Bytes/sec)
system.mem_ctrls0.masterReadAccesses::.switch_cpus_10.inst          183                       # Per-master read serviced memory accesses
system.mem_ctrls0.masterReadAccesses::.switch_cpus_10.data      8565591                       # Per-master read serviced memory accesses
system.mem_ctrls0.masterReadAccesses::.switch_cpus_11.inst          186                       # Per-master read serviced memory accesses
system.mem_ctrls0.masterReadAccesses::.switch_cpus_11.data      8518366                       # Per-master read serviced memory accesses
system.mem_ctrls0.masterReadAccesses::.switch_cpus_12.inst          176                       # Per-master read serviced memory accesses
system.mem_ctrls0.masterReadAccesses::.switch_cpus_12.data      8559238                       # Per-master read serviced memory accesses
system.mem_ctrls0.masterReadAccesses::.switch_cpus_13.inst          170                       # Per-master read serviced memory accesses
system.mem_ctrls0.masterReadAccesses::.switch_cpus_13.data      8554167                       # Per-master read serviced memory accesses
system.mem_ctrls0.masterWriteAccesses::.writebacks      8840413                       # Per-master write serviced memory accesses
system.mem_ctrls0.masterReadTotalLat::.switch_cpus_10.inst      8738193                       # Per-master read total memory access latency
system.mem_ctrls0.masterReadTotalLat::.switch_cpus_10.data 463394566987                       # Per-master read total memory access latency
system.mem_ctrls0.masterReadTotalLat::.switch_cpus_11.inst     11387352                       # Per-master read total memory access latency
system.mem_ctrls0.masterReadTotalLat::.switch_cpus_11.data 463327030903                       # Per-master read total memory access latency
system.mem_ctrls0.masterReadTotalLat::.switch_cpus_12.inst     12186504                       # Per-master read total memory access latency
system.mem_ctrls0.masterReadTotalLat::.switch_cpus_12.data 463252626329                       # Per-master read total memory access latency
system.mem_ctrls0.masterReadTotalLat::.switch_cpus_13.inst      8716669                       # Per-master read total memory access latency
system.mem_ctrls0.masterReadTotalLat::.switch_cpus_13.data 462821446525                       # Per-master read total memory access latency
system.mem_ctrls0.masterWriteTotalLat::.writebacks 46901452355483                       # Per-master write total memory access latency
system.mem_ctrls0.masterReadAvgLat::.switch_cpus_10.inst     47749.69                       # Per-master read average memory access latency
system.mem_ctrls0.masterReadAvgLat::.switch_cpus_10.data     54099.54                       # Per-master read average memory access latency
system.mem_ctrls0.masterReadAvgLat::.switch_cpus_11.inst     61222.32                       # Per-master read average memory access latency
system.mem_ctrls0.masterReadAvgLat::.switch_cpus_11.data     54391.54                       # Per-master read average memory access latency
system.mem_ctrls0.masterReadAvgLat::.switch_cpus_12.inst     69241.50                       # Per-master read average memory access latency
system.mem_ctrls0.masterReadAvgLat::.switch_cpus_12.data     54123.12                       # Per-master read average memory access latency
system.mem_ctrls0.masterReadAvgLat::.switch_cpus_13.inst     51274.52                       # Per-master read average memory access latency
system.mem_ctrls0.masterReadAvgLat::.switch_cpus_13.data     54104.79                       # Per-master read average memory access latency
system.mem_ctrls0.masterWriteAvgLat::.writebacks   5305346.29                       # Per-master write average memory access latency
system.mem_ctrls0.totQLat                1242107087642                       # Total ticks spent queuing
system.mem_ctrls0.totMemAccLat           1852836699462                       # Total ticks spent from burst creation until serviced by the DRAM
system.mem_ctrls0.totBusLat              128574655120                       # Total ticks spent in databus transfers
system.mem_ctrls0.avgQLat                    36323.82                       # Average queueing delay per DRAM burst
system.mem_ctrls0.avgBusLat                   3760.00                       # Average bus latency per DRAM burst
system.mem_ctrls0.avgMemAccLat               54183.82                       # Average memory access latency per DRAM burst
system.mem_ctrls0.avgRdBW                     2668.15                       # Average DRAM read bandwidth in MiByte/s
system.mem_ctrls0.avgWrBW                      689.78                       # Average achieved write bandwidth in MiByte/s
system.mem_ctrls0.avgRdBWSys                  2668.36                       # Average system read bandwidth in MiByte/s
system.mem_ctrls0.avgWrBWSys                   689.79                       # Average system write bandwidth in MiByte/s
system.mem_ctrls0.peakBW                     17021.00                       # Theoretical peak bandwidth in MiByte/s
system.mem_ctrls0.busUtil                       19.73                       # Data bus utilization in percentage
system.mem_ctrls0.busUtilRead                   15.68                       # Data bus utilization in percentage for reads
system.mem_ctrls0.busUtilWrite                   4.05                       # Data bus utilization in percentage for writes
system.mem_ctrls0.avgRdQLen                      3.48                       # Average read queue length when enqueuing
system.mem_ctrls0.avgWrQLen                     57.79                       # Average write queue length when enqueuing
system.mem_ctrls0.readRowHits                13596733                       # Number of row buffer hits during reads
system.mem_ctrls0.writeRowHits                4538272                       # Number of row buffer hits during writes
system.mem_ctrls0.readRowHitRate                39.76                       # Row buffer hit rate for reads
system.mem_ctrls0.writeRowHitRate               51.34                       # Row buffer hit rate for writes
system.mem_ctrls0.avgGap                     19058.37                       # Average gap between requests
system.mem_ctrls0.pageHitRate                   42.14                       # Row buffer hit rate, read and write combined
system.mem_ctrls0_0.actEnergy                       0                       # Energy for activate commands per rank (pJ)
system.mem_ctrls0_0.preEnergy            32232274628.400166                       # Energy for precharge commands per rank (pJ)
system.mem_ctrls0_0.readEnergy           45229242333.119621                       # Energy for read commands per rank (pJ)
system.mem_ctrls0_0.writeEnergy           14964741720                       # Energy for write commands per rank (pJ)
system.mem_ctrls0_0.refreshEnergy        49320979628.126228                       # Energy for refresh commands per rank (pJ)
system.mem_ctrls0_0.actBackEnergy        293158826145.360901                       # Energy for active background per rank (pJ)
system.mem_ctrls0_0.preBackEnergy        1576448907.265722                       # Energy for precharge background per rank (pJ)
system.mem_ctrls0_0.actPowerDownEnergy   117885501189.120682                       # Energy for active power-down per rank (pJ)
system.mem_ctrls0_0.prePowerDownEnergy   1079178580.800744                       # Energy for precharge power-down per rank (pJ)
system.mem_ctrls0_0.selfRefreshEnergy    1901337420.959999                       # Energy for self refresh per rank (pJ)
system.mem_ctrls0_0.totalEnergy          557351259805.595947                       # Total energy per rank (pJ)
system.mem_ctrls0_0.averagePower           679.504191                       # Core power per rank (mW)
system.mem_ctrls0_0.totalIdleTime        317748434532                       # Total Idle time Per DRAM Rank
system.mem_ctrls0_0.memoryStateTime::IDLE    444570131                       # Time in different power states
system.mem_ctrls0_0.memoryStateTime::REF  27179360000                       # Time in different power states
system.mem_ctrls0_0.memoryStateTime::SREF   6258133860                       # Time in different power states
system.mem_ctrls0_0.memoryStateTime::PRE_PDN   4496586602                       # Time in different power states
system.mem_ctrls0_0.memoryStateTime::ACT 474865443797                       # Time in different power states
system.mem_ctrls0_0.memoryStateTime::ACT_PDN 306993753250                       # Time in different power states
system.mem_ctrls0_1.actEnergy                       0                       # Energy for activate commands per rank (pJ)
system.mem_ctrls0_1.preEnergy            32651010010.080311                       # Energy for precharge commands per rank (pJ)
system.mem_ctrls0_1.readEnergy           45801613491.838905                       # Energy for read commands per rank (pJ)
system.mem_ctrls0_1.writeEnergy           14951022984                       # Energy for write commands per rank (pJ)
system.mem_ctrls0_1.refreshEnergy        49260588132.446541                       # Energy for refresh commands per rank (pJ)
system.mem_ctrls0_1.actBackEnergy        294719779278.957214                       # Energy for active background per rank (pJ)
system.mem_ctrls0_1.preBackEnergy        1592997912.577724                       # Energy for precharge background per rank (pJ)
system.mem_ctrls0_1.actPowerDownEnergy   116403926430.721588                       # Energy for active power-down per rank (pJ)
system.mem_ctrls0_1.prePowerDownEnergy   1122021825.598191                       # Energy for precharge power-down per rank (pJ)
system.mem_ctrls0_1.selfRefreshEnergy    2189896052.879999                       # Energy for self refresh per rank (pJ)
system.mem_ctrls0_1.totalEnergy          558695098062.000244                       # Total energy per rank (pJ)
system.mem_ctrls0_1.averagePower           681.142554                       # Core power per rank (mW)
system.mem_ctrls0_1.totalIdleTime        315052798864                       # Total Idle time Per DRAM Rank
system.mem_ctrls0_1.memoryStateTime::IDLE    420566969                       # Time in different power states
system.mem_ctrls0_1.memoryStateTime::REF  27146080000                       # Time in different power states
system.mem_ctrls0_1.memoryStateTime::SREF   7243029680                       # Time in different power states
system.mem_ctrls0_1.memoryStateTime::PRE_PDN   4675135584                       # Time in different power states
system.mem_ctrls0_1.memoryStateTime::ACT 477612816607                       # Time in different power states
system.mem_ctrls0_1.memoryStateTime::ACT_PDN 303134633600                       # Time in different power states
system.mem_ctrls1.pwrStateResidencyTicks::UNDEFINED 1054947092000                       # Cumulative time (in ticks) in various power states
system.mem_ctrls1.bytes_read::.switch_cpus_10.inst        10688                       # Number of bytes read from this memory
system.mem_ctrls1.bytes_read::.switch_cpus_10.data    548261376                       # Number of bytes read from this memory
system.mem_ctrls1.bytes_read::.switch_cpus_11.inst        10944                       # Number of bytes read from this memory
system.mem_ctrls1.bytes_read::.switch_cpus_11.data    545721408                       # Number of bytes read from this memory
system.mem_ctrls1.bytes_read::.switch_cpus_12.inst        11648                       # Number of bytes read from this memory
system.mem_ctrls1.bytes_read::.switch_cpus_12.data    547916224                       # Number of bytes read from this memory
system.mem_ctrls1.bytes_read::.switch_cpus_13.inst        11264                       # Number of bytes read from this memory
system.mem_ctrls1.bytes_read::.switch_cpus_13.data    547737216                       # Number of bytes read from this memory
system.mem_ctrls1.bytes_read::total        2189680768                       # Number of bytes read from this memory
system.mem_ctrls1.bytes_inst_read::.switch_cpus_10.inst        10688                       # Number of instructions bytes read from this memory
system.mem_ctrls1.bytes_inst_read::.switch_cpus_11.inst        10944                       # Number of instructions bytes read from this memory
system.mem_ctrls1.bytes_inst_read::.switch_cpus_12.inst        11648                       # Number of instructions bytes read from this memory
system.mem_ctrls1.bytes_inst_read::.switch_cpus_13.inst        11264                       # Number of instructions bytes read from this memory
system.mem_ctrls1.bytes_inst_read::total        44544                       # Number of instructions bytes read from this memory
system.mem_ctrls1.bytes_written::.writebacks    565769856                       # Number of bytes written to this memory
system.mem_ctrls1.bytes_written::total      565769856                       # Number of bytes written to this memory
system.mem_ctrls1.num_reads::.switch_cpus_10.inst          167                       # Number of read requests responded to by this memory
system.mem_ctrls1.num_reads::.switch_cpus_10.data      8566584                       # Number of read requests responded to by this memory
system.mem_ctrls1.num_reads::.switch_cpus_11.inst          171                       # Number of read requests responded to by this memory
system.mem_ctrls1.num_reads::.switch_cpus_11.data      8526897                       # Number of read requests responded to by this memory
system.mem_ctrls1.num_reads::.switch_cpus_12.inst          182                       # Number of read requests responded to by this memory
system.mem_ctrls1.num_reads::.switch_cpus_12.data      8561191                       # Number of read requests responded to by this memory
system.mem_ctrls1.num_reads::.switch_cpus_13.inst          176                       # Number of read requests responded to by this memory
system.mem_ctrls1.num_reads::.switch_cpus_13.data      8558394                       # Number of read requests responded to by this memory
system.mem_ctrls1.num_reads::total           34213762                       # Number of read requests responded to by this memory
system.mem_ctrls1.num_writes::.writebacks      8840154                       # Number of write requests responded to by this memory
system.mem_ctrls1.num_writes::total           8840154                       # Number of write requests responded to by this memory
system.mem_ctrls1.bw_read::.switch_cpus_10.inst        13030                       # Total read bandwidth from this memory (bytes/s)
system.mem_ctrls1.bw_read::.switch_cpus_10.data    668422106                       # Total read bandwidth from this memory (bytes/s)
system.mem_ctrls1.bw_read::.switch_cpus_11.inst        13343                       # Total read bandwidth from this memory (bytes/s)
system.mem_ctrls1.bw_read::.switch_cpus_11.data    665325461                       # Total read bandwidth from this memory (bytes/s)
system.mem_ctrls1.bw_read::.switch_cpus_12.inst        14201                       # Total read bandwidth from this memory (bytes/s)
system.mem_ctrls1.bw_read::.switch_cpus_12.data    668001308                       # Total read bandwidth from this memory (bytes/s)
system.mem_ctrls1.bw_read::.switch_cpus_13.inst        13733                       # Total read bandwidth from this memory (bytes/s)
system.mem_ctrls1.bw_read::.switch_cpus_13.data    667783067                       # Total read bandwidth from this memory (bytes/s)
system.mem_ctrls1.bw_read::total           2669586248                       # Total read bandwidth from this memory (bytes/s)
system.mem_ctrls1.bw_inst_read::.switch_cpus_10.inst        13030                       # Instruction read bandwidth from this memory (bytes/s)
system.mem_ctrls1.bw_inst_read::.switch_cpus_11.inst        13343                       # Instruction read bandwidth from this memory (bytes/s)
system.mem_ctrls1.bw_inst_read::.switch_cpus_12.inst        14201                       # Instruction read bandwidth from this memory (bytes/s)
system.mem_ctrls1.bw_inst_read::.switch_cpus_13.inst        13733                       # Instruction read bandwidth from this memory (bytes/s)
system.mem_ctrls1.bw_inst_read::total           54307                       # Instruction read bandwidth from this memory (bytes/s)
system.mem_ctrls1.bw_write::.writebacks     689767864                       # Write bandwidth from this memory (bytes/s)
system.mem_ctrls1.bw_write::total           689767864                       # Write bandwidth from this memory (bytes/s)
system.mem_ctrls1.bw_total::.writebacks     689767864                       # Total bandwidth to/from this memory (bytes/s)
system.mem_ctrls1.bw_total::.switch_cpus_10.inst        13030                       # Total bandwidth to/from this memory (bytes/s)
system.mem_ctrls1.bw_total::.switch_cpus_10.data    668422106                       # Total bandwidth to/from this memory (bytes/s)
system.mem_ctrls1.bw_total::.switch_cpus_11.inst        13343                       # Total bandwidth to/from this memory (bytes/s)
system.mem_ctrls1.bw_total::.switch_cpus_11.data    665325461                       # Total bandwidth to/from this memory (bytes/s)
system.mem_ctrls1.bw_total::.switch_cpus_12.inst        14201                       # Total bandwidth to/from this memory (bytes/s)
system.mem_ctrls1.bw_total::.switch_cpus_12.data    668001308                       # Total bandwidth to/from this memory (bytes/s)
system.mem_ctrls1.bw_total::.switch_cpus_13.inst        13733                       # Total bandwidth to/from this memory (bytes/s)
system.mem_ctrls1.bw_total::.switch_cpus_13.data    667783067                       # Total bandwidth to/from this memory (bytes/s)
system.mem_ctrls1.bw_total::total          3359354112                       # Total bandwidth to/from this memory (bytes/s)
system.mem_ctrls1.avgPriority_.writebacks::samples   8840154.00                       # Average QoS priority value for accepted requests
system.mem_ctrls1.avgPriority_.switch_cpus_10.inst::samples       167.00                       # Average QoS priority value for accepted requests
system.mem_ctrls1.avgPriority_.switch_cpus_10.data::samples   8566159.00                       # Average QoS priority value for accepted requests
system.mem_ctrls1.avgPriority_.switch_cpus_11.inst::samples       171.00                       # Average QoS priority value for accepted requests
system.mem_ctrls1.avgPriority_.switch_cpus_11.data::samples   8525946.00                       # Average QoS priority value for accepted requests
system.mem_ctrls1.avgPriority_.switch_cpus_12.inst::samples       182.00                       # Average QoS priority value for accepted requests
system.mem_ctrls1.avgPriority_.switch_cpus_12.data::samples   8560509.00                       # Average QoS priority value for accepted requests
system.mem_ctrls1.avgPriority_.switch_cpus_13.inst::samples       176.00                       # Average QoS priority value for accepted requests
system.mem_ctrls1.avgPriority_.switch_cpus_13.data::samples   8557816.00                       # Average QoS priority value for accepted requests
system.mem_ctrls1.priorityMinLatency     0.000000017860                       # per QoS priority minimum request to response latency (s)
system.mem_ctrls1.priorityMaxLatency     0.000922962620                       # per QoS priority maximum request to response latency (s)
system.mem_ctrls1.numReadWriteTurnArounds       545737                       # Number of turnarounds from READ to WRITE
system.mem_ctrls1.numWriteReadTurnArounds       545737                       # Number of turnarounds from WRITE to READ
system.mem_ctrls1.numStayReadState           64314580                       # Number of times bus staying in READ state
system.mem_ctrls1.numStayWriteState           8301767                       # Number of times bus staying in WRITE state
system.mem_ctrls1.readReqs                   34213762                       # Number of read requests accepted
system.mem_ctrls1.writeReqs                   8840154                       # Number of write requests accepted
system.mem_ctrls1.readBursts                 34213762                       # Number of DRAM read bursts, including those serviced by the write queue
system.mem_ctrls1.writeBursts                 8840154                       # Number of DRAM write bursts, including those merged in the write queue
system.mem_ctrls1.bytesReadDRAM            2189512064                       # Total number of bytes read from DRAM
system.mem_ctrls1.bytesReadWrQ                 168704                       # Total number of bytes read from write queue
system.mem_ctrls1.bytesWritten              565766272                       # Total number of bytes written to DRAM
system.mem_ctrls1.bytesReadSys             2189680768                       # Total read bytes from the system interface side
system.mem_ctrls1.bytesWrittenSys           565769856                       # Total written bytes from the system interface side
system.mem_ctrls1.servicedByWrQ                  2636                       # Number of DRAM read bursts serviced by the write queue
system.mem_ctrls1.mergedWrBursts                    0                       # Number of DRAM write bursts merged with an existing one
system.mem_ctrls1.neitherReadNorWriteReqs            0                       # Number of requests that are neither read nor write
system.mem_ctrls1.perBankRdBursts::0          1066450                       # Per bank write bursts
system.mem_ctrls1.perBankRdBursts::1          1064905                       # Per bank write bursts
system.mem_ctrls1.perBankRdBursts::2          1068953                       # Per bank write bursts
system.mem_ctrls1.perBankRdBursts::3          1053059                       # Per bank write bursts
system.mem_ctrls1.perBankRdBursts::4          1062375                       # Per bank write bursts
system.mem_ctrls1.perBankRdBursts::5          1063912                       # Per bank write bursts
system.mem_ctrls1.perBankRdBursts::6          1060356                       # Per bank write bursts
system.mem_ctrls1.perBankRdBursts::7          1062324                       # Per bank write bursts
system.mem_ctrls1.perBankRdBursts::8          1055122                       # Per bank write bursts
system.mem_ctrls1.perBankRdBursts::9          1062968                       # Per bank write bursts
system.mem_ctrls1.perBankRdBursts::10         1064567                       # Per bank write bursts
system.mem_ctrls1.perBankRdBursts::11         1054157                       # Per bank write bursts
system.mem_ctrls1.perBankRdBursts::12         1052762                       # Per bank write bursts
system.mem_ctrls1.perBankRdBursts::13         1059974                       # Per bank write bursts
[...]
system.switch_cpus_13.iew.memOrderViolationEvents         8731                       # Number of memory order violations
system.switch_cpus_13.iew.predictedTakenIncorrect      3337239                       # Number of branches that were predicted taken incorrectly
system.switch_cpus_13.iew.predictedNotTakenIncorrect      8142315                       # Number of branches that were predicted not taken incorrectly
system.switch_cpus_13.iew.branchMispredicts     11479554                       # Number of branch mispredicts detected at execute
system.switch_cpus_13.iew.iewExecutedInsts   1222495960                       # Number of executed instructions
system.switch_cpus_13.iew.iewExecLoadInsts    264610643                       # Number of load instructions executed
system.switch_cpus_13.iew.iewExecSquashedInsts     11506859                       # Number of squashed instructions skipped in execute
system.switch_cpus_13.iew.exec_swp                  0                       # number of swp insts executed
system.switch_cpus_13.iew.exec_nop                  0                       # number of nop insts executed
system.switch_cpus_13.iew.exec_refs         320244080                       # number of memory reference insts executed
system.switch_cpus_13.iew.exec_branches     151979457                       # Number of branches executed
system.switch_cpus_13.iew.exec_stores        55633437                       # Number of stores executed
system.switch_cpus_13.iew.exec_rate          0.372607                       # Inst execution rate
system.switch_cpus_13.iew.wb_sent          1112998862                       # cumulative count of insts sent to commit
system.switch_cpus_13.iew.wb_count         1111181960                       # cumulative count of insts written-back
system.switch_cpus_13.iew.wb_producers      780664894                       # num instructions producing a value
system.switch_cpus_13.iew.wb_consumers     1197176205                       # num instructions consuming a value
system.switch_cpus_13.iew.wb_rate            0.338679                       # insts written-back per cycle
system.switch_cpus_13.iew.wb_fanout          0.652089                       # average fanout of values written-back
system.switch_cpus_13.commit.commitSquashedInsts    299009578                       # The number of squashed insts skipped by commit
system.switch_cpus_13.commit.commitNonSpecStalls          227                       # The number of times commit has been forced to stall to communicate backwards
system.switch_cpus_13.commit.branchMispredicts      8664756                       # The number of times a branch was mispredicted
system.switch_cpus_13.commit.committed_per_cycle::samples   3223333758                       # Number of insts commited each cycle
system.switch_cpus_13.commit.committed_per_cycle::mean     0.285953                       # Number of insts commited each cycle
system.switch_cpus_13.commit.committed_per_cycle::stdev     1.202982                       # Number of insts commited each cycle
system.switch_cpus_13.commit.committed_per_cycle::underflows            0      0.00%      0.00% # Number of insts commited each cycle
system.switch_cpus_13.commit.committed_per_cycle::0   2960537156     91.85%     91.85% # Number of insts commited each cycle
system.switch_cpus_13.commit.committed_per_cycle::1     77549429      2.41%     94.25% # Number of insts commited each cycle
system.switch_cpus_13.commit.committed_per_cycle::2     40199721      1.25%     95.50% # Number of insts commited each cycle
system.switch_cpus_13.commit.committed_per_cycle::3     54713590      1.70%     97.20% # Number of insts commited each cycle
system.switch_cpus_13.commit.committed_per_cycle::4     12599073      0.39%     97.59% # Number of insts commited each cycle
system.switch_cpus_13.commit.committed_per_cycle::5     14580989      0.45%     98.04% # Number of insts commited each cycle
system.switch_cpus_13.commit.committed_per_cycle::6     11527000      0.36%     98.40% # Number of insts commited each cycle
system.switch_cpus_13.commit.committed_per_cycle::7      5846829      0.18%     98.58% # Number of insts commited each cycle
system.switch_cpus_13.commit.committed_per_cycle::8     45779971      1.42%    100.00% # Number of insts commited each cycle
system.switch_cpus_13.commit.committed_per_cycle::overflows            0      0.00%    100.00% # Number of insts commited each cycle
system.switch_cpus_13.commit.committed_per_cycle::min_value            0                       # Number of insts commited each cycle
system.switch_cpus_13.commit.committed_per_cycle::max_value            8                       # Number of insts commited each cycle
system.switch_cpus_13.commit.committed_per_cycle::total   3223333758                       # Number of insts commited each cycle
system.switch_cpus_13.commit.committedInsts    499593466                       # Number of instructions committed
system.switch_cpus_13.commit.committedOps    921720449                       # Number of ops (including micro ops) committed
system.switch_cpus_13.commit.swp_count              0                       # Number of s/w prefetches committed
system.switch_cpus_13.commit.refs           186365518                       # Number of memory references committed
system.switch_cpus_13.commit.loads          136393589                       # Number of loads committed
system.switch_cpus_13.commit.membars                0                       # Number of memory barriers committed
system.switch_cpus_13.commit.branches       130172213                       # Number of branches committed
system.switch_cpus_13.commit.vec_insts              0                       # Number of committed Vector instructions.
system.switch_cpus_13.commit.fp_insts         4228792                       # Number of committed floating point instructions.
system.switch_cpus_13.commit.int_insts      916016025                       # Number of committed integer instructions.
system.switch_cpus_13.commit.function_calls      2641506                       # Number of function calls committed.
system.switch_cpus_13.commit.op_class_0::No_OpClass      1900825      0.21%      0.21% # Class of committed instruction
system.switch_cpus_13.commit.op_class_0::IntAlu    728692104     79.06%     79.26% # Class of committed instruction
system.switch_cpus_13.commit.op_class_0::IntMult      1488444      0.16%     79.43% # Class of committed instruction
system.switch_cpus_13.commit.op_class_0::IntDiv           14      0.00%     79.43% # Class of committed instruction
system.switch_cpus_13.commit.op_class_0::FloatAdd       227172      0.02%     79.45% # Class of committed instruction
system.switch_cpus_13.commit.op_class_0::FloatCmp            0      0.00%     79.45% # Class of committed instruction
system.switch_cpus_13.commit.op_class_0::FloatCvt            0      0.00%     79.45% # Class of committed instruction
system.switch_cpus_13.commit.op_class_0::FloatMult            0      0.00%     79.45% # Class of committed instruction
system.switch_cpus_13.commit.op_class_0::FloatMultAcc            0      0.00%     79.45% # Class of committed instruction
system.switch_cpus_13.commit.op_class_0::FloatDiv            0      0.00%     79.45% # Class of committed instruction
system.switch_cpus_13.commit.op_class_0::FloatMisc            0      0.00%     79.45% # Class of committed instruction
system.switch_cpus_13.commit.op_class_0::FloatSqrt            0      0.00%     79.45% # Class of committed instruction
system.switch_cpus_13.commit.op_class_0::SimdAdd            0      0.00%     79.45% # Class of committed instruction
system.switch_cpus_13.commit.op_class_0::SimdAddAcc            0      0.00%     79.45% # Class of committed instruction
system.switch_cpus_13.commit.op_class_0::SimdAlu           28      0.00%     79.45% # Class of committed instruction
system.switch_cpus_13.commit.op_class_0::SimdCmp            0      0.00%     79.45% # Class of committed instruction
system.switch_cpus_13.commit.op_class_0::SimdCvt       728080      0.08%     79.53% # Class of committed instruction
system.switch_cpus_13.commit.op_class_0::SimdMisc      2318264      0.25%     79.78% # Class of committed instruction
system.switch_cpus_13.commit.op_class_0::SimdMult            0      0.00%     79.78% # Class of committed instruction
system.switch_cpus_13.commit.op_class_0::SimdMultAcc            0      0.00%     79.78% # Class of committed instruction
system.switch_cpus_13.commit.op_class_0::SimdShift            0      0.00%     79.78% # Class of committed instruction
system.switch_cpus_13.commit.op_class_0::SimdShiftAcc            0      0.00%     79.78% # Class of committed instruction
system.switch_cpus_13.commit.op_class_0::SimdSqrt            0      0.00%     79.78% # Class of committed instruction
system.switch_cpus_13.commit.op_class_0::SimdFloatAdd            0      0.00%     79.78% # Class of committed instruction
system.switch_cpus_13.commit.op_class_0::SimdFloatAlu            0      0.00%     79.78% # Class of committed instruction
system.switch_cpus_13.commit.op_class_0::SimdFloatCmp            0      0.00%     79.78% # Class of committed instruction
system.switch_cpus_13.commit.op_class_0::SimdFloatCvt            0      0.00%     79.78% # Class of committed instruction
system.switch_cpus_13.commit.op_class_0::SimdFloatDiv            0      0.00%     79.78% # Class of committed instruction
system.switch_cpus_13.commit.op_class_0::SimdFloatMisc            0      0.00%     79.78% # Class of committed instruction
system.switch_cpus_13.commit.op_class_0::SimdFloatMult            0      0.00%     79.78% # Class of committed instruction
system.switch_cpus_13.commit.op_class_0::SimdFloatMultAcc            0      0.00%     79.78% # Class of committed instruction
system.switch_cpus_13.commit.op_class_0::SimdFloatSqrt            0      0.00%     79.78% # Class of committed instruction
system.switch_cpus_13.commit.op_class_0::SimdAes            0      0.00%     79.78% # Class of committed instruction
system.switch_cpus_13.commit.op_class_0::SimdAesMix            0      0.00%     79.78% # Class of committed instruction
system.switch_cpus_13.commit.op_class_0::SimdSha1Hash            0      0.00%     79.78% # Class of committed instruction
system.switch_cpus_13.commit.op_class_0::SimdSha1Hash2            0      0.00%     79.78% # Class of committed instruction
system.switch_cpus_13.commit.op_class_0::SimdSha256Hash            0      0.00%     79.78% # Class of committed instruction
system.switch_cpus_13.commit.op_class_0::SimdSha256Hash2            0      0.00%     79.78% # Class of committed instruction
system.switch_cpus_13.commit.op_class_0::SimdShaSigma2            0      0.00%     79.78% # Class of committed instruction
system.switch_cpus_13.commit.op_class_0::SimdShaSigma3            0      0.00%     79.78% # Class of committed instruction
system.switch_cpus_13.commit.op_class_0::MemRead    135665529     14.72%     94.50% # Class of committed instruction
system.switch_cpus_13.commit.op_class_0::MemWrite     49971929      5.42%     99.92% # Class of committed instruction
system.switch_cpus_13.commit.op_class_0::FloatMemRead       728060      0.08%    100.00% # Class of committed instruction
system.switch_cpus_13.commit.op_class_0::FloatMemWrite            0      0.00%    100.00% # Class of committed instruction
system.switch_cpus_13.commit.op_class_0::IprAccess            0      0.00%    100.00% # Class of committed instruction
system.switch_cpus_13.commit.op_class_0::InstPrefetch            0      0.00%    100.00% # Class of committed instruction
system.switch_cpus_13.commit.op_class_0::total    921720449                       # Class of committed instruction
system.switch_cpus_13.commit.bw_lim_events     45779971                       # number cycles where commit BW limit reached
system.switch_cpus_13.rob.rob_reads        4398283814                       # The number of ROB reads
system.switch_cpus_13.rob.rob_writes       2488278504                       # The number of ROB writes
system.switch_cpus_13.timesIdled                40492                       # Number of times that the entire CPU went into an idle state and unscheduled itself
system.switch_cpus_13.idleCycles             10936979                       # Total number of cycles that the CPU has spent unscheduled due to idling
system.switch_cpus_13.committedInsts        499593466                       # Number of Instructions Simulated
system.switch_cpus_13.committedOps          921720449                       # Number of Ops (including micro ops) Simulated
system.switch_cpus_13.cpi                    6.567198                       # CPI: Cycles Per Instruction
system.switch_cpus_13.cpi_total              6.567198                       # CPI: Total CPI of All Threads
system.switch_cpus_13.ipc                    0.152272                       # IPC: Instructions Per Cycle
system.switch_cpus_13.ipc_total              0.152272                       # IPC: Total IPC of All Threads
system.switch_cpus_13.int_regfile_reads    1710994561                       # number of integer regfile reads
system.switch_cpus_13.int_regfile_writes    896957290                       # number of integer regfile writes
system.switch_cpus_13.fp_regfile_reads        6393599                       # number of floating regfile reads
system.switch_cpus_13.fp_regfile_writes       3546086                       # number of floating regfile writes
system.switch_cpus_13.cc_regfile_reads      741260164                       # number of cc regfile reads
system.switch_cpus_13.cc_regfile_writes     400026176                       # number of cc regfile writes
system.switch_cpus_13.misc_regfile_reads    640020088                       # number of misc regfile reads
system.tol3bus.snoop_filter.tot_requests    153144161                       # Total number of requests made to the snoop filter.
system.tol3bus.snoop_filter.hit_single_requests     76644330                       # Number of requests hitting in the snoop filter with a single holder of the requested data.
system.tol3bus.snoop_filter.hit_multi_requests            0                       # Number of requests hitting in the snoop filter with multiple (>1) holders of the requested data.
system.tol3bus.snoop_filter.tot_snoops         198068                       # Total number of snoops made to the snoop filter.
system.tol3bus.snoop_filter.hit_single_snoops       198068                       # Number of snoops hitting in the snoop filter with a single holder of the requested data.
system.tol3bus.snoop_filter.hit_multi_snoops            0                       # Number of snoops hitting in the snoop filter with multiple (>1) holders of the requested data.
system.tol3bus.pwrStateResidencyTicks::UNDEFINED 1054947092000                       # Cumulative time (in ticks) in various power states
system.tol3bus.trans_dist::ReadResp          75135601                       # Transaction distribution
system.tol3bus.trans_dist::WritebackDirty     36215590                       # Transaction distribution
system.tol3bus.trans_dist::CleanEvict       108751592                       # Transaction distribution
system.tol3bus.trans_dist::UpgradeReq             560                       # Transaction distribution
system.tol3bus.trans_dist::UpgradeResp            560                       # Transaction distribution
system.tol3bus.trans_dist::ReadExReq          1492642                       # Transaction distribution
system.tol3bus.trans_dist::ReadExResp         1492641                       # Transaction distribution
system.tol3bus.trans_dist::ReadSharedReq     75135611                       # Transaction distribution
system.tol3bus.pkt_count_system.cpu0.l2cache.mem_side::system.l3.cpu_side     57589654                       # Packet count per connected master and slave (bytes)
system.tol3bus.pkt_count_system.cpu1.l2cache.mem_side::system.l3.cpu_side     57273215                       # Packet count per connected master and slave (bytes)
system.tol3bus.pkt_count_system.cpu2.l2cache.mem_side::system.l3.cpu_side     57462340                       # Packet count per connected master and slave (bytes)
system.tol3bus.pkt_count_system.cpu3.l2cache.mem_side::system.l3.cpu_side     57447754                       # Packet count per connected master and slave (bytes)
system.tol3bus.pkt_count::total             229772963                       # Packet count per connected master and slave (bytes)
system.tol3bus.pkt_size_system.cpu0.l2cache.mem_side::system.l3.cpu_side   1527746496                       # Cumulative packet size per connected master and slave (bytes)
system.tol3bus.pkt_size_system.cpu1.l2cache.mem_side::system.l3.cpu_side   1517675648                       # Cumulative packet size per connected master and slave (bytes)
system.tol3bus.pkt_size_system.cpu2.l2cache.mem_side::system.l3.cpu_side   1522594176                       # Cumulative packet size per connected master and slave (bytes)
system.tol3bus.pkt_size_system.cpu3.l2cache.mem_side::system.l3.cpu_side   1522432576                       # Cumulative packet size per connected master and slave (bytes)
system.tol3bus.pkt_size::total             6090448896                       # Cumulative packet size per connected master and slave (bytes)
system.tol3bus.snoops                        68451834                       # Total snoops (count)
system.tol3bus.snoopTraffic                1131556352                       # Total snoop traffic (bytes)
system.tol3bus.snoop_fanout::samples        145080647                       # Request fanout histogram
system.tol3bus.snoop_fanout::mean            0.001365                       # Request fanout histogram
system.tol3bus.snoop_fanout::stdev           0.036924                       # Request fanout histogram
system.tol3bus.snoop_fanout::underflows             0      0.00%      0.00% # Request fanout histogram
system.tol3bus.snoop_fanout::0              144882579     99.86%     99.86% # Request fanout histogram
system.tol3bus.snoop_fanout::1                 198068      0.14%    100.00% # Request fanout histogram
system.tol3bus.snoop_fanout::2                      0      0.00%    100.00% # Request fanout histogram
system.tol3bus.snoop_fanout::3                      0      0.00%    100.00% # Request fanout histogram
system.tol3bus.snoop_fanout::4                      0      0.00%    100.00% # Request fanout histogram
system.tol3bus.snoop_fanout::overflows              0      0.00%    100.00% # Request fanout histogram
system.tol3bus.snoop_fanout::min_value              0                       # Request fanout histogram
system.tol3bus.snoop_fanout::max_value              1                       # Request fanout histogram
system.tol3bus.snoop_fanout::total          145080647                       # Request fanout histogram
system.tol3bus.reqLayer0.occupancy        47553551256                       # Layer occupancy (ticks)
system.tol3bus.reqLayer0.utilization              5.8                       # Layer utilization (%)
system.tol3bus.respLayer0.occupancy       14416761614                       # Layer occupancy (ticks)
system.tol3bus.respLayer0.utilization             1.8                       # Layer utilization (%)
system.tol3bus.respLayer1.occupancy       14337857134                       # Layer occupancy (ticks)
system.tol3bus.respLayer1.utilization             1.7                       # Layer utilization (%)
system.tol3bus.respLayer2.occupancy       14385675226                       # Layer occupancy (ticks)
system.tol3bus.respLayer2.utilization             1.8                       # Layer utilization (%)
system.tol3bus.respLayer3.occupancy       14381966632                       # Layer occupancy (ticks)
system.tol3bus.respLayer3.utilization             1.8                       # Layer utilization (%)

---------- End Simulation Statistics   ----------
