
---------- Begin Simulation Statistics ----------
sim_seconds                                  0.197929                       # Number of seconds simulated
sim_ticks                                197929120340                       # Number of ticks simulated
final_tick                               258362009500                       # Number of ticks from beginning of simulation (restored from checkpoints and never reset)
sim_freq                                 1000000000000                       # Frequency of simulated ticks
host_inst_rate                                  86361                       # Simulator instruction rate (inst/s)
host_op_rate                                   189840                       # Simulator op (including micro ops) rate (op/s)
host_tick_rate                                7123002                       # Simulator tick rate (ticks/s)
host_mem_usage                               17221588                       # Number of bytes of host memory used
host_seconds                                 27787.32                       # Real time elapsed on the host
sim_insts                                  2399741871                       # Number of instructions simulated
sim_ops                                    5275152354                       # Number of ops (including micro ops) simulated
system.voltage_domain.voltage                       1                       # Voltage in Volts
system.clk_domain.clock                          1000                       # Clock period in ticks
system.mem_ctrls0.pwrStateResidencyTicks::UNDEFINED 258362009500                       # Cumulative time (in ticks) in various power states
system.mem_ctrls0.bytes_read::.switch_cpus_10.inst        45824                       # Number of bytes read from this memory
system.mem_ctrls0.bytes_read::.switch_cpus_10.data     11154048                       # Number of bytes read from this memory
system.mem_ctrls0.bytes_read::.switch_cpus_11.inst        46208                       # Number of bytes read from this memory
system.mem_ctrls0.bytes_read::.switch_cpus_11.data     11263104                       # Number of bytes read from this memory
system.mem_ctrls0.bytes_read::.switch_cpus_12.inst        45312                       # Number of bytes read from this memory
system.mem_ctrls0.bytes_read::.switch_cpus_12.data     11216128                       # Number of bytes read from this memory
system.mem_ctrls0.bytes_read::.switch_cpus_13.inst        46720                       # Number of bytes read from this memory
system.mem_ctrls0.bytes_read::.switch_cpus_13.data     11233024                       # Number of bytes read from this memory
system.mem_ctrls0.bytes_read::total          45050368                       # Number of bytes read from this memory
system.mem_ctrls0.bytes_inst_read::.switch_cpus_10.inst        45824                       # Number of instructions bytes read from this memory
system.mem_ctrls0.bytes_inst_read::.switch_cpus_11.inst        46208                       # Number of instructions bytes read from this memory
system.mem_ctrls0.bytes_inst_read::.switch_cpus_12.inst        45312                       # Number of instructions bytes read from this memory
system.mem_ctrls0.bytes_inst_read::.switch_cpus_13.inst        46720                       # Number of instructions bytes read from this memory
system.mem_ctrls0.bytes_inst_read::total       184064                       # Number of instructions bytes read from this memory
system.mem_ctrls0.bytes_written::.writebacks     40323968                       # Number of bytes written to this memory
system.mem_ctrls0.bytes_written::total       40323968                       # Number of bytes written to this memory
system.mem_ctrls0.num_reads::.switch_cpus_10.inst          716                       # Number of read requests responded to by this memory
system.mem_ctrls0.num_reads::.switch_cpus_10.data       174282                       # Number of read requests responded to by this memory
system.mem_ctrls0.num_reads::.switch_cpus_11.inst          722                       # Number of read requests responded to by this memory
system.mem_ctrls0.num_reads::.switch_cpus_11.data       175986                       # Number of read requests responded to by this memory
system.mem_ctrls0.num_reads::.switch_cpus_12.inst          708                       # Number of read requests responded to by this memory
system.mem_ctrls0.num_reads::.switch_cpus_12.data       175252                       # Number of read requests responded to by this memory
system.mem_ctrls0.num_reads::.switch_cpus_13.inst          730                       # Number of read requests responded to by this memory
system.mem_ctrls0.num_reads::.switch_cpus_13.data       175516                       # Number of read requests responded to by this memory
system.mem_ctrls0.num_reads::total             703912                       # Number of read requests responded to by this memory
system.mem_ctrls0.num_writes::.writebacks       630062                       # Number of write requests responded to by this memory
system.mem_ctrls0.num_writes::total            630062                       # Number of write requests responded to by this memory
system.mem_ctrls0.bw_read::.switch_cpus_10.inst       231517                       # Total read bandwidth from this memory (bytes/s)
system.mem_ctrls0.bw_read::.switch_cpus_10.data     56353749                       # Total read bandwidth from this memory (bytes/s)
system.mem_ctrls0.bw_read::.switch_cpus_11.inst       233457                       # Total read bandwidth from this memory (bytes/s)
system.mem_ctrls0.bw_read::.switch_cpus_11.data     56904734                       # Total read bandwidth from this memory (bytes/s)
system.mem_ctrls0.bw_read::.switch_cpus_12.inst       228930                       # Total read bandwidth from this memory (bytes/s)
system.mem_ctrls0.bw_read::.switch_cpus_12.data     56667397                       # Total read bandwidth from this memory (bytes/s)
system.mem_ctrls0.bw_read::.switch_cpus_13.inst       236044                       # Total read bandwidth from this memory (bytes/s)
system.mem_ctrls0.bw_read::.switch_cpus_13.data     56752761                       # Total read bandwidth from this memory (bytes/s)
system.mem_ctrls0.bw_read::total            227608590                       # Total read bandwidth from this memory (bytes/s)
system.mem_ctrls0.bw_inst_read::.switch_cpus_10.inst       231517                       # Instruction read bandwidth from this memory (bytes/s)
system.mem_ctrls0.bw_inst_read::.switch_cpus_11.inst       233457                       # Instruction read bandwidth from this memory (bytes/s)
system.mem_ctrls0.bw_inst_read::.switch_cpus_12.inst       228930                       # Instruction read bandwidth from this memory (bytes/s)
system.mem_ctrls0.bw_inst_read::.switch_cpus_13.inst       236044                       # Instruction read bandwidth from this memory (bytes/s)
system.mem_ctrls0.bw_inst_read::total          929949                       # Instruction read bandwidth from this memory (bytes/s)
system.mem_ctrls0.bw_write::.writebacks     203729335                       # Write bandwidth from this memory (bytes/s)
system.mem_ctrls0.bw_write::total           203729335                       # Write bandwidth from this memory (bytes/s)
system.mem_ctrls0.bw_total::.writebacks     203729335                       # Total bandwidth to/from this memory (bytes/s)
system.mem_ctrls0.bw_total::.switch_cpus_10.inst       231517                       # Total bandwidth to/from this memory (bytes/s)
system.mem_ctrls0.bw_total::.switch_cpus_10.data     56353749                       # Total bandwidth to/from this memory (bytes/s)
system.mem_ctrls0.bw_total::.switch_cpus_11.inst       233457                       # Total bandwidth to/from this memory (bytes/s)
system.mem_ctrls0.bw_total::.switch_cpus_11.data     56904734                       # Total bandwidth to/from this memory (bytes/s)
system.mem_ctrls0.bw_total::.switch_cpus_12.inst       228930                       # Total bandwidth to/from this memory (bytes/s)
system.mem_ctrls0.bw_total::.switch_cpus_12.data     56667397                       # Total bandwidth to/from this memory (bytes/s)
system.mem_ctrls0.bw_total::.switch_cpus_13.inst       236044                       # Total bandwidth to/from this memory (bytes/s)
system.mem_ctrls0.bw_total::.switch_cpus_13.data     56752761                       # Total bandwidth to/from this memory (bytes/s)
system.mem_ctrls0.bw_total::total           431337925                       # Total bandwidth to/from this memory (bytes/s)
system.mem_ctrls0.avgPriority_.writebacks::samples    630062.00                       # Average QoS priority value for accepted requests
system.mem_ctrls0.avgPriority_.switch_cpus_10.inst::samples       716.00                       # Average QoS priority value for accepted requests
system.mem_ctrls0.avgPriority_.switch_cpus_10.data::samples    174225.00                       # Average QoS priority value for accepted requests
system.mem_ctrls0.avgPriority_.switch_cpus_11.inst::samples       722.00                       # Average QoS priority value for accepted requests
system.mem_ctrls0.avgPriority_.switch_cpus_11.data::samples    175918.00                       # Average QoS priority value for accepted requests
system.mem_ctrls0.avgPriority_.switch_cpus_12.inst::samples       708.00                       # Average QoS priority value for accepted requests
system.mem_ctrls0.avgPriority_.switch_cpus_12.data::samples    175202.00                       # Average QoS priority value for accepted requests
system.mem_ctrls0.avgPriority_.switch_cpus_13.inst::samples       730.00                       # Average QoS priority value for accepted requests
system.mem_ctrls0.avgPriority_.switch_cpus_13.data::samples    175469.00                       # Average QoS priority value for accepted requests
system.mem_ctrls0.priorityMinLatency     0.000000017860                       # per QoS priority minimum request to response latency (s)
system.mem_ctrls0.priorityMaxLatency     0.012433448540                       # per QoS priority maximum request to response latency (s)
system.mem_ctrls0.numReadWriteTurnArounds        37725                       # Number of turnarounds from READ to WRITE
system.mem_ctrls0.numWriteReadTurnArounds        37725                       # Number of turnarounds from WRITE to READ
system.mem_ctrls0.numStayReadState            1813454                       # Number of times bus staying in READ state
system.mem_ctrls0.numStayWriteState            592691                       # Number of times bus staying in WRITE state
system.mem_ctrls0.readReqs                     703912                       # Number of read requests accepted
system.mem_ctrls0.writeReqs                    630062                       # Number of write requests accepted
system.mem_ctrls0.readBursts                   703912                       # Number of DRAM read bursts, including those serviced by the write queue
system.mem_ctrls0.writeBursts                  630062                       # Number of DRAM write bursts, including those merged in the write queue
system.mem_ctrls0.bytesReadDRAM              45036160                       # Total number of bytes read from DRAM
system.mem_ctrls0.bytesReadWrQ                  14208                       # Total number of bytes read from write queue
system.mem_ctrls0.bytesWritten               40320128                       # Total number of bytes written to DRAM
system.mem_ctrls0.bytesReadSys               45050368                       # Total read bytes from the system interface side
system.mem_ctrls0.bytesWrittenSys            40323968                       # Total written bytes from the system interface side
system.mem_ctrls0.servicedByWrQ                   222                       # Number of DRAM read bursts serviced by the write queue
system.mem_ctrls0.mergedWrBursts                    0                       # Number of DRAM write bursts merged with an existing one
system.mem_ctrls0.neitherReadNorWriteReqs            0                       # Number of requests that are neither read nor write
system.mem_ctrls0.perBankRdBursts::0            20075                       # Per bank write bursts
system.mem_ctrls0.perBankRdBursts::1            20276                       # Per bank write bursts
system.mem_ctrls0.perBankRdBursts::2            19541                       # Per bank write bursts
system.mem_ctrls0.perBankRdBursts::3            21051                       # Per bank write bursts
system.mem_ctrls0.perBankRdBursts::4            22467                       # Per bank write bursts
system.mem_ctrls0.perBankRdBursts::5            23427                       # Per bank write bursts
system.mem_ctrls0.perBankRdBursts::6            22969                       # Per bank write bursts
system.mem_ctrls0.perBankRdBursts::7            22068                       # Per bank write bursts
system.mem_ctrls0.perBankRdBursts::8            21811                       # Per bank write bursts
system.mem_ctrls0.perBankRdBursts::9            20715                       # Per bank write bursts
system.mem_ctrls0.perBankRdBursts::10           23404                       # Per bank write bursts
system.mem_ctrls0.perBankRdBursts::11           23007                       # Per bank write bursts
system.mem_ctrls0.perBankRdBursts::12           21322                       # Per bank write bursts
system.mem_ctrls0.perBankRdBursts::13           21043                       # Per bank write bursts
system.mem_ctrls0.perBankRdBursts::14           21302                       # Per bank write bursts
system.mem_ctrls0.perBankRdBursts::15           23318                       # Per bank write bursts
system.mem_ctrls0.perBankRdBursts::16           22656                       # Per bank write bursts
system.mem_ctrls0.perBankRdBursts::17           24771                       # Per bank write bursts
system.mem_ctrls0.perBankRdBursts::18           24084                       # Per bank write bursts
system.mem_ctrls0.perBankRdBursts::19           22329                       # Per bank write bursts
system.mem_ctrls0.perBankRdBursts::20           22364                       # Per bank write bursts
system.mem_ctrls0.perBankRdBursts::21           22187                       # Per bank write bursts
system.mem_ctrls0.perBankRdBursts::22           22362                       # Per bank write bursts
system.mem_ctrls0.perBankRdBursts::23           22219                       # Per bank write bursts
system.mem_ctrls0.perBankRdBursts::24           21216                       # Per bank write bursts
system.mem_ctrls0.perBankRdBursts::25           20003                       # Per bank write bursts
system.mem_ctrls0.perBankRdBursts::26           21543                       # Per bank write bursts
system.mem_ctrls0.perBankRdBursts::27           20871                       # Per bank write bursts
system.mem_ctrls0.perBankRdBursts::28           21591                       # Per bank write bursts
system.mem_ctrls0.perBankRdBursts::29           23257                       # Per bank write bursts
system.mem_ctrls0.perBankRdBursts::30           23767                       # Per bank write bursts
system.mem_ctrls0.perBankRdBursts::31           20674                       # Per bank write bursts
system.mem_ctrls0.perBankWrBursts::0            18080                       # Per bank write bursts
system.mem_ctrls0.perBankWrBursts::1            17835                       # Per bank write bursts
system.mem_ctrls0.perBankWrBursts::2            17471                       # Per bank write bursts
system.mem_ctrls0.perBankWrBursts::3            19290                       # Per bank write bursts
system.mem_ctrls0.perBankWrBursts::4            20765                       # Per bank write bursts
system.mem_ctrls0.perBankWrBursts::5            21273                       # Per bank write bursts
system.mem_ctrls0.perBankWrBursts::6            20621                       # Per bank write bursts
system.mem_ctrls0.perBankWrBursts::7            19750                       # Per bank write bursts
system.mem_ctrls0.perBankWrBursts::8            19518                       # Per bank write bursts
system.mem_ctrls0.perBankWrBursts::9            18360                       # Per bank write bursts
system.mem_ctrls0.perBankWrBursts::10           20707                       # Per bank write bursts
system.mem_ctrls0.perBankWrBursts::11           20624                       # Per bank write bursts
system.mem_ctrls0.perBankWrBursts::12           19167                       # Per bank write bursts
system.mem_ctrls0.perBankWrBursts::13           18758                       # Per bank write bursts
system.mem_ctrls0.perBankWrBursts::14           19008                       # Per bank write bursts
system.mem_ctrls0.perBankWrBursts::15           21346                       # Per bank write bursts
system.mem_ctrls0.perBankWrBursts::16           20941                       # Per bank write bursts
system.mem_ctrls0.perBankWrBursts::17           22098                       # Per bank write bursts
system.mem_ctrls0.perBankWrBursts::18           21369                       # Per bank write bursts
system.mem_ctrls0.perBankWrBursts::19           19986                       # Per bank write bursts
system.mem_ctrls0.perBankWrBursts::20           19757                       # Per bank write bursts
system.mem_ctrls0.perBankWrBursts::21           19594                       # Per bank write bursts
system.mem_ctrls0.perBankWrBursts::22           19875                       # Per bank write bursts
system.mem_ctrls0.perBankWrBursts::23           20076                       # Per bank write bursts
system.mem_ctrls0.perBankWrBursts::24           19177                       # Per bank write bursts
system.mem_ctrls0.perBankWrBursts::25           17805                       # Per bank write bursts
system.mem_ctrls0.perBankWrBursts::26           19498                       # Per bank write bursts
system.mem_ctrls0.perBankWrBursts::27           18785                       # Per bank write bursts
system.mem_ctrls0.perBankWrBursts::28           19097                       # Per bank write bursts
system.mem_ctrls0.perBankWrBursts::29           20181                       # Per bank write bursts
system.mem_ctrls0.perBankWrBursts::30           20656                       # Per bank write bursts
system.mem_ctrls0.perBankWrBursts::31           18534                       # Per bank write bursts
system.mem_ctrls0.numRdRetry                        0                       # Number of times read queue was full causing retry
system.mem_ctrls0.numWrRetry                        0                       # Number of times write queue was full causing retry
system.mem_ctrls0.totGap                 197965976000                       # Total gap between requests
system.mem_ctrls0.readPktSize::0                    0                       # Read request sizes (log2)
system.mem_ctrls0.readPktSize::1                    0                       # Read request sizes (log2)
system.mem_ctrls0.readPktSize::2                    0                       # Read request sizes (log2)
system.mem_ctrls0.readPktSize::3                    0                       # Read request sizes (log2)
system.mem_ctrls0.readPktSize::4                    0                       # Read request sizes (log2)
system.mem_ctrls0.readPktSize::5                    0                       # Read request sizes (log2)
system.mem_ctrls0.readPktSize::6               703912                       # Read request sizes (log2)
system.mem_ctrls0.writePktSize::0                   0                       # Write request sizes (log2)
system.mem_ctrls0.writePktSize::1                   0                       # Write request sizes (log2)
system.mem_ctrls0.writePktSize::2                   0                       # Write request sizes (log2)
system.mem_ctrls0.writePktSize::3                   0                       # Write request sizes (log2)
system.mem_ctrls0.writePktSize::4                   0                       # Write request sizes (log2)
system.mem_ctrls0.writePktSize::5                   0                       # Write request sizes (log2)
system.mem_ctrls0.writePktSize::6              630062                       # Write request sizes (log2)
system.mem_ctrls0.rdQLenPdf::0                 358005                       # What read queue length does an incoming req see
system.mem_ctrls0.rdQLenPdf::1                 128244                       # What read queue length does an incoming req see
system.mem_ctrls0.rdQLenPdf::2                  77593                       # What read queue length does an incoming req see
system.mem_ctrls0.rdQLenPdf::3                  48963                       # What read queue length does an incoming req see
system.mem_ctrls0.rdQLenPdf::4                  29764                       # What read queue length does an incoming req see
system.mem_ctrls0.rdQLenPdf::5                  21682                       # What read queue length does an incoming req see
system.mem_ctrls0.rdQLenPdf::6                  15310                       # What read queue length does an incoming req see
system.mem_ctrls0.rdQLenPdf::7                  10525                       # What read queue length does an incoming req see
system.mem_ctrls0.rdQLenPdf::8                   6129                       # What read queue length does an incoming req see
system.mem_ctrls0.rdQLenPdf::9                   3509                       # What read queue length does an incoming req see
system.mem_ctrls0.rdQLenPdf::10                  1772                       # What read queue length does an incoming req see
system.mem_ctrls0.rdQLenPdf::11                  1052                       # What read queue length does an incoming req see
system.mem_ctrls0.rdQLenPdf::12                   543                       # What read queue length does an incoming req see
system.mem_ctrls0.rdQLenPdf::13                   347                       # What read queue length does an incoming req see
system.mem_ctrls0.rdQLenPdf::14                   144                       # What read queue length does an incoming req see
system.mem_ctrls0.rdQLenPdf::15                   108                       # What read queue length does an incoming req see
system.mem_ctrls0.rdQLenPdf::16                     0                       # What read queue length does an incoming req see
system.mem_ctrls0.rdQLenPdf::17                     0                       # What read queue length does an incoming req see
system.mem_ctrls0.rdQLenPdf::18                     0                       # What read queue length does an incoming req see
system.mem_ctrls0.rdQLenPdf::19                     0                       # What read queue length does an incoming req see
system.mem_ctrls0.rdQLenPdf::20                     0                       # What read queue length does an incoming req see
system.mem_ctrls0.rdQLenPdf::21                     0                       # What read queue length does an incoming req see
system.mem_ctrls0.rdQLenPdf::22                     0                       # What read queue length does an incoming req see
system.mem_ctrls0.rdQLenPdf::23                     0                       # What read queue length does an incoming req see
system.mem_ctrls0.rdQLenPdf::24                     0                       # What read queue length does an incoming req see
system.mem_ctrls0.rdQLenPdf::25                     0                       # What read queue length does an incoming req see
system.mem_ctrls0.rdQLenPdf::26                     0                       # What read queue length does an incoming req see
system.mem_ctrls0.rdQLenPdf::27                     0                       # What read queue length does an incoming req see
system.mem_ctrls0.rdQLenPdf::28                     0                       # What read queue length does an incoming req see
system.mem_ctrls0.rdQLenPdf::29                     0                       # What read queue length does an incoming req see
system.mem_ctrls0.rdQLenPdf::30                     0                       # What read queue length does an incoming req see
system.mem_ctrls0.rdQLenPdf::31                     0                       # What read queue length does an incoming req see
system.mem_ctrls0.rdQLenPdf::32                     0                       # What read queue length does an incoming req see
system.mem_ctrls0.rdQLenPdf::33                     0                       # What read queue length does an incoming req see
system.mem_ctrls0.rdQLenPdf::34                     0                       # What read queue length does an incoming req see
system.mem_ctrls0.rdQLenPdf::35                     0                       # What read queue length does an incoming req see
system.mem_ctrls0.rdQLenPdf::36                     0                       # What read queue length does an incoming req see
system.mem_ctrls0.rdQLenPdf::37                     0                       # What read queue length does an incoming req see
system.mem_ctrls0.rdQLenPdf::38                     0                       # What read queue length does an incoming req see
system.mem_ctrls0.rdQLenPdf::39                     0                       # What read queue length does an incoming req see
system.mem_ctrls0.rdQLenPdf::40                     0                       # What read queue length does an incoming req see
system.mem_ctrls0.rdQLenPdf::41                     0                       # What read queue length does an incoming req see
system.mem_ctrls0.rdQLenPdf::42                     0                       # What read queue length does an incoming req see
system.mem_ctrls0.rdQLenPdf::43                     0                       # What read queue length does an incoming req see
system.mem_ctrls0.rdQLenPdf::44                     0                       # What read queue length does an incoming req see
system.mem_ctrls0.rdQLenPdf::45                     0                       # What read queue length does an incoming req see
system.mem_ctrls0.rdQLenPdf::46                     0                       # What read queue length does an incoming req see
system.mem_ctrls0.rdQLenPdf::47                     0                       # What read queue length does an incoming req see
system.mem_ctrls0.rdQLenPdf::48                     0                       # What read queue length does an incoming req see
system.mem_ctrls0.rdQLenPdf::49                     0                       # What read queue length does an incoming req see
system.mem_ctrls0.rdQLenPdf::50                     0                       # What read queue length does an incoming req see
system.mem_ctrls0.rdQLenPdf::51                     0                       # What read queue length does an incoming req see
system.mem_ctrls0.rdQLenPdf::52                     0                       # What read queue length does an incoming req see
system.mem_ctrls0.rdQLenPdf::53                     0                       # What read queue length does an incoming req see
system.mem_ctrls0.rdQLenPdf::54                     0                       # What read queue length does an incoming req see
system.mem_ctrls0.rdQLenPdf::55                     0                       # What read queue length does an incoming req see
system.mem_ctrls0.rdQLenPdf::56                     0                       # What read queue length does an incoming req see
system.mem_ctrls0.rdQLenPdf::57                     0                       # What read queue length does an incoming req see
system.mem_ctrls0.rdQLenPdf::58                     0                       # What read queue length does an incoming req see
system.mem_ctrls0.rdQLenPdf::59                     0                       # What read queue length does an incoming req see
system.mem_ctrls0.rdQLenPdf::60                     0                       # What read queue length does an incoming req see
system.mem_ctrls0.rdQLenPdf::61                     0                       # What read queue length does an incoming req see
system.mem_ctrls0.rdQLenPdf::62                     0                       # What read queue length does an incoming req see
system.mem_ctrls0.rdQLenPdf::63                     0                       # What read queue length does an incoming req see
system.mem_ctrls0.wrQLenPdf::0                      1                       # What write queue length does an incoming req see
system.mem_ctrls0.wrQLenPdf::1                      1                       # What write queue length does an incoming req see
system.mem_ctrls0.wrQLenPdf::2                      1                       # What write queue length does an incoming req see
system.mem_ctrls0.wrQLenPdf::3                      1                       # What write queue length does an incoming req see
system.mem_ctrls0.wrQLenPdf::4                      1                       # What write queue length does an incoming req see
system.mem_ctrls0.wrQLenPdf::5                      1                       # What write queue length does an incoming req see
system.mem_ctrls0.wrQLenPdf::6                      1                       # What write queue length does an incoming req see
system.mem_ctrls0.wrQLenPdf::7                      1                       # What write queue length does an incoming req see
system.mem_ctrls0.wrQLenPdf::8                      1                       # What write queue length does an incoming req see
system.mem_ctrls0.wrQLenPdf::9                      1                       # What write queue length does an incoming req see
system.mem_ctrls0.wrQLenPdf::10                     1                       # What write queue length does an incoming req see
system.mem_ctrls0.wrQLenPdf::11                     1                       # What write queue length does an incoming req see
system.mem_ctrls0.wrQLenPdf::12                     1                       # What write queue length does an incoming req see
system.mem_ctrls0.wrQLenPdf::13                     1                       # What write queue length does an incoming req see
system.mem_ctrls0.wrQLenPdf::14                     1                       # What write queue length does an incoming req see
system.mem_ctrls0.wrQLenPdf::15                     1                       # What write queue length does an incoming req see
system.mem_ctrls0.wrQLenPdf::16                     1                       # What write queue length does an incoming req see
system.mem_ctrls0.wrQLenPdf::17                     1                       # What write queue length does an incoming req see
system.mem_ctrls0.wrQLenPdf::18                     1                       # What write queue length does an incoming req see
system.mem_ctrls0.wrQLenPdf::19                     1                       # What write queue length does an incoming req see
system.mem_ctrls0.wrQLenPdf::20                     1                       # What write queue length does an incoming req see
system.mem_ctrls0.wrQLenPdf::21                     1                       # What write queue length does an incoming req see
system.mem_ctrls0.wrQLenPdf::22                     1                       # What write queue length does an incoming req see
system.mem_ctrls0.wrQLenPdf::23                     1                       # What write queue length does an incoming req see
system.mem_ctrls0.wrQLenPdf::24                     1                       # What write queue length does an incoming req see
system.mem_ctrls0.wrQLenPdf::25                     1                       # What write queue length does an incoming req see
system.mem_ctrls0.wrQLenPdf::26                     1                       # What write queue length does an incoming req see
system.mem_ctrls0.wrQLenPdf::27                     1                       # What write queue length does an incoming req see
system.mem_ctrls0.wrQLenPdf::28                     1                       # What write queue length does an incoming req see
system.mem_ctrls0.wrQLenPdf::29                     1                       # What write queue length does an incoming req see
system.mem_ctrls0.wrQLenPdf::30                     1                       # What write queue length does an incoming req see
system.mem_ctrls0.wrQLenPdf::31                     1                       # What write queue length does an incoming req see
system.mem_ctrls0.wrQLenPdf::32                     1                       # What write queue length does an incoming req see
system.mem_ctrls0.wrQLenPdf::33                     1                       # What write queue length does an incoming req see
system.mem_ctrls0.wrQLenPdf::34                     1                       # What write queue length does an incoming req see
system.mem_ctrls0.wrQLenPdf::35                     1                       # What write queue length does an incoming req see
system.mem_ctrls0.wrQLenPdf::36                     1                       # What write queue length does an incoming req see
system.mem_ctrls0.wrQLenPdf::37                     1                       # What write queue length does an incoming req see
system.mem_ctrls0.wrQLenPdf::38                     1                       # What write queue length does an incoming req see
system.mem_ctrls0.wrQLenPdf::39                     1                       # What write queue length does an incoming req see
system.mem_ctrls0.wrQLenPdf::40                     1                       # What write queue length does an incoming req see
system.mem_ctrls0.wrQLenPdf::41                     1                       # What write queue length does an incoming req see
system.mem_ctrls0.wrQLenPdf::42                     1                       # What write queue length does an incoming req see
system.mem_ctrls0.wrQLenPdf::43                     1                       # What write queue length does an incoming req see
system.mem_ctrls0.wrQLenPdf::44                     1                       # What write queue length does an incoming req see
system.mem_ctrls0.wrQLenPdf::45                     1                       # What write queue length does an incoming req see
system.mem_ctrls0.wrQLenPdf::46                     1                       # What write queue length does an incoming req see
system.mem_ctrls0.wrQLenPdf::47                 10095                       # What write queue length does an incoming req see
system.mem_ctrls0.wrQLenPdf::48                 10850                       # What write queue length does an incoming req see
system.mem_ctrls0.wrQLenPdf::49                 18385                       # What write queue length does an incoming req see
system.mem_ctrls0.wrQLenPdf::50                 24126                       # What write queue length does an incoming req see
system.mem_ctrls0.wrQLenPdf::51                 29524                       # What write queue length does an incoming req see
system.mem_ctrls0.wrQLenPdf::52                 33945                       # What write queue length does an incoming req see
system.mem_ctrls0.wrQLenPdf::53                 37283                       # What write queue length does an incoming req see
system.mem_ctrls0.wrQLenPdf::54                 39501                       # What write queue length does an incoming req see
system.mem_ctrls0.wrQLenPdf::55                 40986                       # What write queue length does an incoming req see
system.mem_ctrls0.wrQLenPdf::56                 41677                       # What write queue length does an incoming req see
system.mem_ctrls0.wrQLenPdf::57                 42036                       # What write queue length does an incoming req see
system.mem_ctrls0.wrQLenPdf::58                 42328                       # What write queue length does an incoming req see
system.mem_ctrls0.wrQLenPdf::59                 42717                       # What write queue length does an incoming req see
system.mem_ctrls0.wrQLenPdf::60                 42649                       # What write queue length does an incoming req see
system.mem_ctrls0.wrQLenPdf::61                 42683                       # What write queue length does an incoming req see
system.mem_ctrls0.wrQLenPdf::62                 42614                       # What write queue length does an incoming req see
system.mem_ctrls0.wrQLenPdf::63                 41436                       # What write queue length does an incoming req see
system.mem_ctrls0.wrQLenPdf::64                 41146                       # What write queue length does an incoming req see
system.mem_ctrls0.wrQLenPdf::65                  1691                       # What write queue length does an incoming req see
system.mem_ctrls0.wrQLenPdf::66                  1045                       # What write queue length does an incoming req see
system.mem_ctrls0.wrQLenPdf::67                   792                       # What write queue length does an incoming req see
system.mem_ctrls0.wrQLenPdf::68                   642                       # What write queue length does an incoming req see
system.mem_ctrls0.wrQLenPdf::69                   486                       # What write queue length does an incoming req see
system.mem_ctrls0.wrQLenPdf::70                   357                       # What write queue length does an incoming req see
system.mem_ctrls0.wrQLenPdf::71                   276                       # What write queue length does an incoming req see
system.mem_ctrls0.wrQLenPdf::72                   195                       # What write queue length does an incoming req see
system.mem_ctrls0.wrQLenPdf::73                   150                       # What write queue length does an incoming req see
system.mem_ctrls0.wrQLenPdf::74                   119                       # What write queue length does an incoming req see
system.mem_ctrls0.wrQLenPdf::75                    87                       # What write queue length does an incoming req see
system.mem_ctrls0.wrQLenPdf::76                    54                       # What write queue length does an incoming req see
system.mem_ctrls0.wrQLenPdf::77                    30                       # What write queue length does an incoming req see
system.mem_ctrls0.wrQLenPdf::78                    16                       # What write queue length does an incoming req see
system.mem_ctrls0.wrQLenPdf::79                    12                       # What write queue length does an incoming req see
system.mem_ctrls0.wrQLenPdf::80                    14                       # What write queue length does an incoming req see
system.mem_ctrls0.wrQLenPdf::81                    11                       # What write queue length does an incoming req see
system.mem_ctrls0.wrQLenPdf::82                     8                       # What write queue length does an incoming req see
system.mem_ctrls0.wrQLenPdf::83                     7                       # What write queue length does an incoming req see
system.mem_ctrls0.wrQLenPdf::84                     6                       # What write queue length does an incoming req see
system.mem_ctrls0.wrQLenPdf::85                     5                       # What write queue length does an incoming req see
system.mem_ctrls0.wrQLenPdf::86                     4                       # What write queue length does an incoming req see
system.mem_ctrls0.wrQLenPdf::87                     3                       # What write queue length does an incoming req see
system.mem_ctrls0.wrQLenPdf::88                     4                       # What write queue length does an incoming req see
system.mem_ctrls0.wrQLenPdf::89                     3                       # What write queue length does an incoming req see
system.mem_ctrls0.wrQLenPdf::90                     2                       # What write queue length does an incoming req see
system.mem_ctrls0.wrQLenPdf::91                     2                       # What write queue length does an incoming req see
system.mem_ctrls0.wrQLenPdf::92                     3                       # What write queue length does an incoming req see
system.mem_ctrls0.wrQLenPdf::93                     2                       # What write queue length does an incoming req see
system.mem_ctrls0.wrQLenPdf::94                     2                       # What write queue length does an incoming req see
system.mem_ctrls0.wrQLenPdf::95                     2                       # What write queue length does an incoming req see
system.mem_ctrls0.wrQLenPdf::96                     2                       # What write queue length does an incoming req see
system.mem_ctrls0.wrQLenPdf::97                     1                       # What write queue length does an incoming req see
system.mem_ctrls0.wrQLenPdf::98                     1                       # What write queue length does an incoming req see
system.mem_ctrls0.wrQLenPdf::99                     0                       # What write queue length does an incoming req see
system.mem_ctrls0.wrQLenPdf::100                    0                       # What write queue length does an incoming req see
system.mem_ctrls0.wrQLenPdf::101                    0                       # What write queue length does an incoming req see
system.mem_ctrls0.wrQLenPdf::102                    0                       # What write queue length does an incoming req see
system.mem_ctrls0.wrQLenPdf::103                    0                       # What write queue length does an incoming req see
system.mem_ctrls0.wrQLenPdf::104                    0                       # What write queue length does an incoming req see
system.mem_ctrls0.wrQLenPdf::105                    0                       # What write queue length does an incoming req see
system.mem_ctrls0.wrQLenPdf::106                    0                       # What write queue length does an incoming req see
system.mem_ctrls0.wrQLenPdf::107                    0                       # What write queue length does an incoming req see
system.mem_ctrls0.wrQLenPdf::108                    0                       # What write queue length does an incoming req see
system.mem_ctrls0.wrQLenPdf::109                    0                       # What write queue length does an incoming req see
system.mem_ctrls0.wrQLenPdf::110                    0                       # What write queue length does an incoming req see
system.mem_ctrls0.wrQLenPdf::111                    0                       # What write queue length does an incoming req see
system.mem_ctrls0.wrQLenPdf::112                    0                       # What write queue length does an incoming req see
system.mem_ctrls0.wrQLenPdf::113                    0                       # What write queue length does an incoming req see
system.mem_ctrls0.wrQLenPdf::114                    0                       # What write queue length does an incoming req see
system.mem_ctrls0.wrQLenPdf::115                    0                       # What write queue length does an incoming req see
system.mem_ctrls0.wrQLenPdf::116                    0                       # What write queue length does an incoming req see
system.mem_ctrls0.wrQLenPdf::117                    0                       # What write queue length does an incoming req see
system.mem_ctrls0.wrQLenPdf::118                    0                       # What write queue length does an incoming req see
system.mem_ctrls0.wrQLenPdf::119                    0                       # What write queue length does an incoming req see
system.mem_ctrls0.wrQLenPdf::120                    0                       # What write queue length does an incoming req see
system.mem_ctrls0.wrQLenPdf::121                    0                       # What write queue length does an incoming req see
system.mem_ctrls0.wrQLenPdf::122                    0                       # What write queue length does an incoming req see
system.mem_ctrls0.wrQLenPdf::123                    0                       # What write queue length does an incoming req see
system.mem_ctrls0.wrQLenPdf::124                    0                       # What write queue length does an incoming req see
system.mem_ctrls0.wrQLenPdf::125                    0                       # What write queue length does an incoming req see
system.mem_ctrls0.wrQLenPdf::126                    0                       # What write queue length does an incoming req see
system.mem_ctrls0.wrQLenPdf::127                    0                       # What write queue length does an incoming req see
system.mem_ctrls0.bytesPerActivate::samples       672283                       # Bytes accessed per row activation
system.mem_ctrls0.bytesPerActivate::mean   126.964627                       # Bytes accessed per row activation
system.mem_ctrls0.bytesPerActivate::gmean   101.948160                       # Bytes accessed per row activation
system.mem_ctrls0.bytesPerActivate::stdev   104.572874                       # Bytes accessed per row activation
system.mem_ctrls0.bytesPerActivate::0-127       380127     56.54%     56.54% # Bytes accessed per row activation
system.mem_ctrls0.bytesPerActivate::128-255       195044     29.01%     85.55% # Bytes accessed per row activation
system.mem_ctrls0.bytesPerActivate::256-383        65858      9.80%     95.35% # Bytes accessed per row activation
system.mem_ctrls0.bytesPerActivate::384-511        21806      3.24%     98.59% # Bytes accessed per row activation
system.mem_ctrls0.bytesPerActivate::512-639         6214      0.92%     99.52% # Bytes accessed per row activation
system.mem_ctrls0.bytesPerActivate::640-767         1762      0.26%     99.78% # Bytes accessed per row activation
system.mem_ctrls0.bytesPerActivate::768-895          698      0.10%     99.88% # Bytes accessed per row activation
system.mem_ctrls0.bytesPerActivate::896-1023          339      0.05%     99.94% # Bytes accessed per row activation
system.mem_ctrls0.bytesPerActivate::1024-1151          435      0.06%    100.00% # Bytes accessed per row activation
system.mem_ctrls0.bytesPerActivate::total       672283                       # Bytes accessed per row activation
system.mem_ctrls0.rdPerTurnAround::samples        37725                       # Reads before turning the bus around for writes
system.mem_ctrls0.rdPerTurnAround::mean     18.652697                       # Reads before turning the bus around for writes
system.mem_ctrls0.rdPerTurnAround::gmean    18.007182                       # Reads before turning the bus around for writes
system.mem_ctrls0.rdPerTurnAround::stdev     5.109032                       # Reads before turning the bus around for writes
system.mem_ctrls0.rdPerTurnAround::0-3             13      0.03%      0.03% # Reads before turning the bus around for writes
system.mem_ctrls0.rdPerTurnAround::4-7            102      0.27%      0.30% # Reads before turning the bus around for writes
system.mem_ctrls0.rdPerTurnAround::8-11          1431      3.79%      4.10% # Reads before turning the bus around for writes
system.mem_ctrls0.rdPerTurnAround::12-15         7981     21.16%     25.25% # Reads before turning the bus around for writes
system.mem_ctrls0.rdPerTurnAround::16-19        14232     37.73%     62.98% # Reads before turning the bus around for writes
system.mem_ctrls0.rdPerTurnAround::20-23         8440     22.37%     85.35% # Reads before turning the bus around for writes
system.mem_ctrls0.rdPerTurnAround::24-27         3564      9.45%     94.80% # Reads before turning the bus around for writes
system.mem_ctrls0.rdPerTurnAround::28-31         1238      3.28%     98.08% # Reads before turning the bus around for writes
system.mem_ctrls0.rdPerTurnAround::32-35          440      1.17%     99.25% # Reads before turning the bus around for writes
system.mem_ctrls0.rdPerTurnAround::36-39          150      0.40%     99.64% # Reads before turning the bus around for writes
system.mem_ctrls0.rdPerTurnAround::40-43           65      0.17%     99.82% # Reads before turning the bus around for writes
system.mem_ctrls0.rdPerTurnAround::44-47           31      0.08%     99.90% # Reads before turning the bus around for writes
system.mem_ctrls0.rdPerTurnAround::48-51           13      0.03%     99.93% # Reads before turning the bus around for writes
system.mem_ctrls0.rdPerTurnAround::52-55           10      0.03%     99.96% # Reads before turning the bus around for writes
system.mem_ctrls0.rdPerTurnAround::56-59            7      0.02%     99.98% # Reads before turning the bus around for writes
system.mem_ctrls0.rdPerTurnAround::60-63            2      0.01%     99.98% # Reads before turning the bus around for writes
system.mem_ctrls0.rdPerTurnAround::64-67            3      0.01%     99.99% # Reads before turning the bus around for writes
system.mem_ctrls0.rdPerTurnAround::68-71            2      0.01%    100.00% # Reads before turning the bus around for writes
system.mem_ctrls0.rdPerTurnAround::144-147            1      0.00%    100.00% # Reads before turning the bus around for writes
system.mem_ctrls0.rdPerTurnAround::total        37725                       # Reads before turning the bus around for writes
system.mem_ctrls0.wrPerTurnAround::samples        37725                       # Writes before turning the bus around for reads
system.mem_ctrls0.wrPerTurnAround::mean     16.699854                       # Writes before turning the bus around for reads
system.mem_ctrls0.wrPerTurnAround::gmean    16.659608                       # Writes before turning the bus around for reads
system.mem_ctrls0.wrPerTurnAround::stdev     1.210906                       # Writes before turning the bus around for reads
system.mem_ctrls0.wrPerTurnAround::16           26521     70.30%     70.30% # Writes before turning the bus around for reads
system.mem_ctrls0.wrPerTurnAround::17             436      1.16%     71.46% # Writes before turning the bus around for reads
system.mem_ctrls0.wrPerTurnAround::18            8351     22.14%     93.59% # Writes before turning the bus around for reads
system.mem_ctrls0.wrPerTurnAround::19            1387      3.68%     97.27% # Writes before turning the bus around for reads
system.mem_ctrls0.wrPerTurnAround::20             524      1.39%     98.66% # Writes before turning the bus around for reads
system.mem_ctrls0.wrPerTurnAround::21             267      0.71%     99.37% # Writes before turning the bus around for reads
system.mem_ctrls0.wrPerTurnAround::22             134      0.36%     99.72% # Writes before turning the bus around for reads
system.mem_ctrls0.wrPerTurnAround::23              47      0.12%     99.85% # Writes before turning the bus around for reads
system.mem_ctrls0.wrPerTurnAround::24              29      0.08%     99.92% # Writes before turning the bus around for reads
system.mem_ctrls0.wrPerTurnAround::25              16      0.04%     99.97% # Writes before turning the bus around for reads
system.mem_ctrls0.wrPerTurnAround::26               3      0.01%     99.97% # Writes before turning the bus around for reads
system.mem_ctrls0.wrPerTurnAround::27               4      0.01%     99.98% # Writes before turning the bus around for reads
system.mem_ctrls0.wrPerTurnAround::28               1      0.00%     99.99% # Writes before turning the bus around for reads
system.mem_ctrls0.wrPerTurnAround::29               1      0.00%     99.99% # Writes before turning the bus around for reads
system.mem_ctrls0.wrPerTurnAround::30               1      0.00%     99.99% # Writes before turning the bus around for reads
system.mem_ctrls0.wrPerTurnAround::31               1      0.00%     99.99% # Writes before turning the bus around for reads
system.mem_ctrls0.wrPerTurnAround::33               1      0.00%    100.00% # Writes before turning the bus around for reads
system.mem_ctrls0.wrPerTurnAround::34               1      0.00%    100.00% # Writes before turning the bus around for reads
system.mem_ctrls0.wrPerTurnAround::total        37725                       # Writes before turning the bus around for reads
system.mem_ctrls0.masterReadBytes::.switch_cpus_10.inst        45824                       # Per-master bytes read from memory
system.mem_ctrls0.masterReadBytes::.switch_cpus_10.data     11150400                       # Per-master bytes read from memory
system.mem_ctrls0.masterReadBytes::.switch_cpus_11.inst        46208                       # Per-master bytes read from memory
system.mem_ctrls0.masterReadBytes::.switch_cpus_11.data     11258752                       # Per-master bytes read from memory
system.mem_ctrls0.masterReadBytes::.switch_cpus_12.inst        45312                       # Per-master bytes read from memory
system.mem_ctrls0.masterReadBytes::.switch_cpus_12.data     11212928                       # Per-master bytes read from memory
system.mem_ctrls0.masterReadBytes::.switch_cpus_13.inst        46720                       # Per-master bytes read from memory
system.mem_ctrls0.masterReadBytes::.switch_cpus_13.data     11230016                       # Per-master bytes read from memory
system.mem_ctrls0.masterWriteBytes::.writebacks     40320128                       # Per-master bytes write to memory
system.mem_ctrls0.masterReadRate::.switch_cpus_10.inst 231517.221524978988                       # Per-master bytes read from memory rate (Bytes/sec)
system.mem_ctrls0.masterReadRate::.switch_cpus_10.data 56335318.324286960065                       # Per-master bytes read from memory rate (Bytes/sec)
system.mem_ctrls0.masterReadRate::.switch_cpus_11.inst 233457.309973512311                       # Per-master bytes read from memory rate (Bytes/sec)
system.mem_ctrls0.masterReadRate::.switch_cpus_11.data 56882746.614848114550                       # Per-master bytes read from memory rate (Bytes/sec)
system.mem_ctrls0.masterReadRate::.switch_cpus_12.inst 228930.436926934519                       # Per-master bytes read from memory rate (Bytes/sec)
system.mem_ctrls0.masterReadRate::.switch_cpus_12.data 56651229.393323138356                       # Per-master bytes read from memory rate (Bytes/sec)
system.mem_ctrls0.masterReadRate::.switch_cpus_13.inst 236044.094571556780                       # Per-master bytes read from memory rate (Bytes/sec)
system.mem_ctrls0.masterReadRate::.switch_cpus_13.data 56737563.329282872379                       # Per-master bytes read from memory rate (Bytes/sec)
system.mem_ctrls0.masterWriteRate::.writebacks 203709933.792150557041                       # Per-master bytes write to memory rate (Bytes/sec)
system.mem_ctrls0.masterReadAccesses::.switch_cpus_10.inst          716                       # Per-master read serviced memory accesses
system.mem_ctrls0.masterReadAccesses::.switch_cpus_10.data       174282                       # Per-master read serviced memory accesses
system.mem_ctrls0.masterReadAccesses::.switch_cpus_11.inst          722                       # Per-master read serviced memory accesses
system.mem_ctrls0.masterReadAccesses::.switch_cpus_11.data       175986                       # Per-master read serviced memory accesses
system.mem_ctrls0.masterReadAccesses::.switch_cpus_12.inst          708                       # Per-master read serviced memory accesses
system.mem_ctrls0.masterReadAccesses::.switch_cpus_12.data       175252                       # Per-master read serviced memory accesses
system.mem_ctrls0.masterReadAccesses::.switch_cpus_13.inst          730                       # Per-master read serviced memory accesses
system.mem_ctrls0.masterReadAccesses::.switch_cpus_13.data       175516                       # Per-master read serviced memory accesses
system.mem_ctrls0.masterWriteAccesses::.writebacks       630062                       # Per-master write serviced memory accesses
system.mem_ctrls0.masterReadTotalLat::.switch_cpus_10.inst     45811420                       # Per-master read total memory access latency
system.mem_ctrls0.masterReadTotalLat::.switch_cpus_10.data   9340535725                       # Per-master read total memory access latency
system.mem_ctrls0.masterReadTotalLat::.switch_cpus_11.inst     51848122                       # Per-master read total memory access latency
system.mem_ctrls0.masterReadTotalLat::.switch_cpus_11.data   9455407275                       # Per-master read total memory access latency
system.mem_ctrls0.masterReadTotalLat::.switch_cpus_12.inst     60562339                       # Per-master read total memory access latency
system.mem_ctrls0.masterReadTotalLat::.switch_cpus_12.data   9403771988                       # Per-master read total memory access latency
system.mem_ctrls0.masterReadTotalLat::.switch_cpus_13.inst     54073907                       # Per-master read total memory access latency
system.mem_ctrls0.masterReadTotalLat::.switch_cpus_13.data   9529904396                       # Per-master read total memory access latency
system.mem_ctrls0.masterWriteTotalLat::.writebacks 11084956507690                       # Per-master write total memory access latency
system.mem_ctrls0.masterReadAvgLat::.switch_cpus_10.inst     63982.43                       # Per-master read average memory access latency
system.mem_ctrls0.masterReadAvgLat::.switch_cpus_10.data     53594.38                       # Per-master read average memory access latency
system.mem_ctrls0.masterReadAvgLat::.switch_cpus_11.inst     71811.80                       # Per-master read average memory access latency
system.mem_ctrls0.masterReadAvgLat::.switch_cpus_11.data     53728.18                       # Per-master read average memory access latency
system.mem_ctrls0.masterReadAvgLat::.switch_cpus_12.inst     85540.03                       # Per-master read average memory access latency
system.mem_ctrls0.masterReadAvgLat::.switch_cpus_12.data     53658.57                       # Per-master read average memory access latency
system.mem_ctrls0.masterReadAvgLat::.switch_cpus_13.inst     74073.85                       # Per-master read average memory access latency
system.mem_ctrls0.masterReadAvgLat::.switch_cpus_13.data     54296.50                       # Per-master read average memory access latency
system.mem_ctrls0.masterWriteAvgLat::.writebacks  17593437.64                       # Per-master write average memory access latency
system.mem_ctrls0.totQLat                 25374011772                       # Total ticks spent queuing
system.mem_ctrls0.totMemAccLat            37941915172                       # Total ticks spent from burst creation until serviced by the DRAM
system.mem_ctrls0.totBusLat                2645874400                       # Total ticks spent in databus transfers
system.mem_ctrls0.avgQLat                    36058.51                       # Average queueing delay per DRAM burst
system.mem_ctrls0.avgBusLat                   3760.00                       # Average bus latency per DRAM burst
system.mem_ctrls0.avgMemAccLat               53918.51                       # Average memory access latency per DRAM burst
system.mem_ctrls0.avgRdBW                      227.54                       # Average DRAM read bandwidth in MiByte/s
system.mem_ctrls0.avgWrBW                      203.71                       # Average achieved write bandwidth in MiByte/s
system.mem_ctrls0.avgRdBWSys                   227.61                       # Average system read bandwidth in MiByte/s
system.mem_ctrls0.avgWrBWSys                   203.73                       # Average system write bandwidth in MiByte/s
system.mem_ctrls0.peakBW                     17021.00                       # Theoretical peak bandwidth in MiByte/s
system.mem_ctrls0.busUtil                        2.53                       # Data bus utilization in percentage
system.mem_ctrls0.busUtilRead                    1.34                       # Data bus utilization in percentage for reads
system.mem_ctrls0.busUtilWrite                   1.20                       # Data bus utilization in percentage for writes
system.mem_ctrls0.avgRdQLen                      1.20                       # Average read queue length when enqueuing
system.mem_ctrls0.avgWrQLen                     56.93                       # Average write queue length when enqueuing
system.mem_ctrls0.readRowHits                  366423                       # Number of row buffer hits during reads
system.mem_ctrls0.writeRowHits                 294984                       # Number of row buffer hits during writes
system.mem_ctrls0.readRowHitRate                52.07                       # Row buffer hit rate for reads
system.mem_ctrls0.writeRowHitRate               46.82                       # Row buffer hit rate for writes
system.mem_ctrls0.avgGap                    148403.17                       # Average gap between requests
system.mem_ctrls0.pageHitRate                   49.59                       # Row buffer hit rate, read and write combined
system.mem_ctrls0_0.actEnergy                       0                       # Energy for activate commands per rank (pJ)
system.mem_ctrls0_0.preEnergy            860434621.200019                       # Energy for precharge commands per rank (pJ)
system.mem_ctrls0_0.readEnergy           925860775.679987                       # Energy for read commands per rank (pJ)
system.mem_ctrls0_0.writeEnergy            1057747032                       # Energy for write commands per rank (pJ)
system.mem_ctrls0_0.refreshEnergy        10857730391.280800                       # Energy for refresh commands per rank (pJ)
system.mem_ctrls0_0.actBackEnergy        18159194980.079712                       # Energy for active background per rank (pJ)
system.mem_ctrls0_0.preBackEnergy        443726269.055972                       # Energy for precharge background per rank (pJ)
system.mem_ctrls0_0.actPowerDownEnergy   43799602905.599983                       # Energy for active power-down per rank (pJ)
system.mem_ctrls0_0.prePowerDownEnergy   8000616811.200734                       # Energy for precharge power-down per rank (pJ)
system.mem_ctrls0_0.selfRefreshEnergy    5639538264.480005                       # Energy for self refresh per rank (pJ)
system.mem_ctrls0_0.totalEnergy          89747137874.975418                       # Total energy per rank (pJ)
system.mem_ctrls0_0.averagePower           453.430691                       # Core power per rank (mW)
system.mem_ctrls0_0.totalIdleTime        165940986827                       # Total Idle time Per DRAM Rank
system.mem_ctrls0_0.memoryStateTime::IDLE    355629250                       # Time in different power states
system.mem_ctrls0_0.memoryStateTime::REF   5983274110                       # Time in different power states
system.mem_ctrls0_0.memoryStateTime::SREF  18543622950                       # Time in different power states
system.mem_ctrls0_0.memoryStateTime::PRE_PDN  33335965945                       # Time in different power states
system.mem_ctrls0_0.memoryStateTime::ACT  25649230153                       # Time in different power states
system.mem_ctrls0_0.memoryStateTime::ACT_PDN 114061397932                       # Time in different power states
system.mem_ctrls0_1.actEnergy                       0                       # Energy for activate commands per rank (pJ)
system.mem_ctrls0_1.preEnergy            891319746.240025                       # Energy for precharge commands per rank (pJ)
system.mem_ctrls0_1.readEnergy           947418299.519980                       # Energy for read commands per rank (pJ)
system.mem_ctrls0_1.writeEnergy            1074179736                       # Energy for write commands per rank (pJ)
system.mem_ctrls0_1.refreshEnergy        10944071357.760702                       # Energy for refresh commands per rank (pJ)
system.mem_ctrls0_1.actBackEnergy        18252046965.599663                       # Energy for active background per rank (pJ)
system.mem_ctrls0_1.preBackEnergy        429135219.071974                       # Energy for precharge background per rank (pJ)
system.mem_ctrls0_1.actPowerDownEnergy   44573672601.600060                       # Energy for active power-down per rank (pJ)
system.mem_ctrls0_1.prePowerDownEnergy   7821612686.400700                       # Energy for precharge power-down per rank (pJ)
system.mem_ctrls0_1.selfRefreshEnergy    5186327942.880001                       # Energy for self refresh per rank (pJ)
system.mem_ctrls0_1.totalEnergy          90122937348.911224                       # Total energy per rank (pJ)
system.mem_ctrls0_1.averagePower           455.329348                       # Core power per rank (mW)
system.mem_ctrls0_1.totalIdleTime        165815953345                       # Total Idle time Per DRAM Rank
system.mem_ctrls0_1.memoryStateTime::IDLE    317136940                       # Time in different power states
system.mem_ctrls0_1.memoryStateTime::REF   6030960000                       # Time in different power states
system.mem_ctrls0_1.memoryStateTime::SREF  17151068080                       # Time in different power states
system.mem_ctrls0_1.memoryStateTime::PRE_PDN  32590046740                       # Time in different power states
system.mem_ctrls0_1.memoryStateTime::ACT  25762544345                       # Time in different power states
system.mem_ctrls0_1.memoryStateTime::ACT_PDN 116077364235                       # Time in different power states
system.mem_ctrls1.pwrStateResidencyTicks::UNDEFINED 258362009500                       # Cumulative time (in ticks) in various power states
system.mem_ctrls1.bytes_read::.switch_cpus_10.inst        49600                       # Number of bytes read from this memory
system.mem_ctrls1.bytes_read::.switch_cpus_10.data     11123520                       # Number of bytes read from this memory
system.mem_ctrls1.bytes_read::.switch_cpus_11.inst        48576                       # Number of bytes read from this memory
system.mem_ctrls1.bytes_read::.switch_cpus_11.data     11262976                       # Number of bytes read from this memory
system.mem_ctrls1.bytes_read::.switch_cpus_12.inst        46720                       # Number of bytes read from this memory
system.mem_ctrls1.bytes_read::.switch_cpus_12.data     11175680                       # Number of bytes read from this memory
system.mem_ctrls1.bytes_read::.switch_cpus_13.inst        47552                       # Number of bytes read from this memory
system.mem_ctrls1.bytes_read::.switch_cpus_13.data     11263872                       # Number of bytes read from this memory
system.mem_ctrls1.bytes_read::total          45018496                       # Number of bytes read from this memory
system.mem_ctrls1.bytes_inst_read::.switch_cpus_10.inst        49600                       # Number of instructions bytes read from this memory
system.mem_ctrls1.bytes_inst_read::.switch_cpus_11.inst        48576                       # Number of instructions bytes read from this memory
system.mem_ctrls1.bytes_inst_read::.switch_cpus_12.inst        46720                       # Number of instructions bytes read from this memory
system.mem_ctrls1.bytes_inst_read::.switch_cpus_13.inst        47552                       # Number of instructions bytes read from this memory
system.mem_ctrls1.bytes_inst_read::total       192448                       # Number of instructions bytes read from this memory
system.mem_ctrls1.bytes_written::.writebacks     40318336                       # Number of bytes written to this memory
system.mem_ctrls1.bytes_written::total       40318336                       # Number of bytes written to this memory
system.mem_ctrls1.num_reads::.switch_cpus_10.inst          775                       # Number of read requests responded to by this memory
system.mem_ctrls1.num_reads::.switch_cpus_10.data       173805                       # Number of read requests responded to by this memory
system.mem_ctrls1.num_reads::.switch_cpus_11.inst          759                       # Number of read requests responded to by this memory
system.mem_ctrls1.num_reads::.switch_cpus_11.data       175984                       # Number of read requests responded to by this memory
system.mem_ctrls1.num_reads::.switch_cpus_12.inst          730                       # Number of read requests responded to by this memory
system.mem_ctrls1.num_reads::.switch_cpus_12.data       174620                       # Number of read requests responded to by this memory
system.mem_ctrls1.num_reads::.switch_cpus_13.inst          743                       # Number of read requests responded to by this memory
system.mem_ctrls1.num_reads::.switch_cpus_13.data       175998                       # Number of read requests responded to by this memory
system.mem_ctrls1.num_reads::total             703414                       # Number of read requests responded to by this memory
system.mem_ctrls1.num_writes::.writebacks       629974                       # Number of write requests responded to by this memory
system.mem_ctrls1.num_writes::total            629974                       # Number of write requests responded to by this memory
system.mem_ctrls1.bw_read::.switch_cpus_10.inst       250595                       # Total read bandwidth from this memory (bytes/s)
system.mem_ctrls1.bw_read::.switch_cpus_10.data     56199512                       # Total read bandwidth from this memory (bytes/s)
system.mem_ctrls1.bw_read::.switch_cpus_11.inst       245421                       # Total read bandwidth from this memory (bytes/s)
system.mem_ctrls1.bw_read::.switch_cpus_11.data     56904088                       # Total read bandwidth from this memory (bytes/s)
system.mem_ctrls1.bw_read::.switch_cpus_12.inst       236044                       # Total read bandwidth from this memory (bytes/s)
system.mem_ctrls1.bw_read::.switch_cpus_12.data     56463041                       # Total read bandwidth from this memory (bytes/s)
system.mem_ctrls1.bw_read::.switch_cpus_13.inst       240248                       # Total read bandwidth from this memory (bytes/s)
system.mem_ctrls1.bw_read::.switch_cpus_13.data     56908614                       # Total read bandwidth from this memory (bytes/s)
system.mem_ctrls1.bw_read::total            227447563                       # Total read bandwidth from this memory (bytes/s)
system.mem_ctrls1.bw_inst_read::.switch_cpus_10.inst       250595                       # Instruction read bandwidth from this memory (bytes/s)
system.mem_ctrls1.bw_inst_read::.switch_cpus_11.inst       245421                       # Instruction read bandwidth from this memory (bytes/s)
system.mem_ctrls1.bw_inst_read::.switch_cpus_12.inst       236044                       # Instruction read bandwidth from this memory (bytes/s)
system.mem_ctrls1.bw_inst_read::.switch_cpus_13.inst       240248                       # Instruction read bandwidth from this memory (bytes/s)
system.mem_ctrls1.bw_inst_read::total          972308                       # Instruction read bandwidth from this memory (bytes/s)
system.mem_ctrls1.bw_write::.writebacks     203700880                       # Write bandwidth from this memory (bytes/s)
system.mem_ctrls1.bw_write::total           203700880                       # Write bandwidth from this memory (bytes/s)
system.mem_ctrls1.bw_total::.writebacks     203700880                       # Total bandwidth to/from this memory (bytes/s)
system.mem_ctrls1.bw_total::.switch_cpus_10.inst       250595                       # Total bandwidth to/from this memory (bytes/s)
system.mem_ctrls1.bw_total::.switch_cpus_10.data     56199512                       # Total bandwidth to/from this memory (bytes/s)
system.mem_ctrls1.bw_total::.switch_cpus_11.inst       245421                       # Total bandwidth to/from this memory (bytes/s)
system.mem_ctrls1.bw_total::.switch_cpus_11.data     56904088                       # Total bandwidth to/from this memory (bytes/s)
system.mem_ctrls1.bw_total::.switch_cpus_12.inst       236044                       # Total bandwidth to/from this memory (bytes/s)
system.mem_ctrls1.bw_total::.switch_cpus_12.data     56463041                       # Total bandwidth to/from this memory (bytes/s)
system.mem_ctrls1.bw_total::.switch_cpus_13.inst       240248                       # Total bandwidth to/from this memory (bytes/s)
system.mem_ctrls1.bw_total::.switch_cpus_13.data     56908614                       # Total bandwidth to/from this memory (bytes/s)
system.mem_ctrls1.bw_total::total           431148443                       # Total bandwidth to/from this memory (bytes/s)
system.mem_ctrls1.avgPriority_.writebacks::samples    629974.00                       # Average QoS priority value for accepted requests
system.mem_ctrls1.avgPriority_.switch_cpus_10.inst::samples       775.00                       # Average QoS priority value for accepted requests
system.mem_ctrls1.avgPriority_.switch_cpus_10.data::samples    173742.00                       # Average QoS priority value for accepted requests
system.mem_ctrls1.avgPriority_.switch_cpus_11.inst::samples       759.00                       # Average QoS priority value for accepted requests
system.mem_ctrls1.avgPriority_.switch_cpus_11.data::samples    175930.00                       # Average QoS priority value for accepted requests
system.mem_ctrls1.avgPriority_.switch_cpus_12.inst::samples       730.00                       # Average QoS priority value for accepted requests
system.mem_ctrls1.avgPriority_.switch_cpus_12.data::samples    174552.00                       # Average QoS priority value for accepted requests
system.mem_ctrls1.avgPriority_.switch_cpus_13.inst::samples       743.00                       # Average QoS priority value for accepted requests
system.mem_ctrls1.avgPriority_.switch_cpus_13.data::samples    175961.00                       # Average QoS priority value for accepted requests
system.mem_ctrls1.priorityMinLatency     0.000000017860                       # per QoS priority minimum request to response latency (s)
system.mem_ctrls1.priorityMaxLatency     0.011980176540                       # per QoS priority maximum request to response latency (s)
system.mem_ctrls1.numReadWriteTurnArounds        37690                       # Number of turnarounds from READ to WRITE
system.mem_ctrls1.numWriteReadTurnArounds        37690                       # Number of turnarounds from WRITE to READ
system.mem_ctrls1.numStayReadState            1813502                       # Number of times bus staying in READ state
system.mem_ctrls1.numStayWriteState            592734                       # Number of times bus staying in WRITE state
system.mem_ctrls1.readReqs                     703415                       # Number of read requests accepted
system.mem_ctrls1.writeReqs                    629974                       # Number of write requests accepted
system.mem_ctrls1.readBursts                   703415                       # Number of DRAM read bursts, including those serviced by the write queue
system.mem_ctrls1.writeBursts                  629974                       # Number of DRAM write bursts, including those merged in the write queue
system.mem_ctrls1.bytesReadDRAM              45004288                       # Total number of bytes read from DRAM
system.mem_ctrls1.bytesReadWrQ                  14272                       # Total number of bytes read from write queue
system.mem_ctrls1.bytesWritten               40314240                       # Total number of bytes written to DRAM
system.mem_ctrls1.bytesReadSys               45018560                       # Total read bytes from the system interface side
system.mem_ctrls1.bytesWrittenSys            40318336                       # Total written bytes from the system interface side
system.mem_ctrls1.servicedByWrQ                   223                       # Number of DRAM read bursts serviced by the write queue
system.mem_ctrls1.mergedWrBursts                    0                       # Number of DRAM write bursts merged with an existing one
system.mem_ctrls1.neitherReadNorWriteReqs            0                       # Number of requests that are neither read nor write
system.mem_ctrls1.perBankRdBursts::0            19960                       # Per bank write bursts
system.mem_ctrls1.perBankRdBursts::1            20395                       # Per bank write bursts
system.mem_ctrls1.perBankRdBursts::2            19756                       # Per bank write bursts
system.mem_ctrls1.perBankRdBursts::3            20997                       # Per bank write bursts
system.mem_ctrls1.perBankRdBursts::4            22423                       # Per bank write bursts
system.mem_ctrls1.perBankRdBursts::5            23330                       # Per bank write bursts
system.mem_ctrls1.perBankRdBursts::6            23088                       # Per bank write bursts
system.mem_ctrls1.perBankRdBursts::7            21869                       # Per bank write bursts
system.mem_ctrls1.perBankRdBursts::8            21698                       # Per bank write bursts
system.mem_ctrls1.perBankRdBursts::9            20454                       # Per bank write bursts
system.mem_ctrls1.perBankRdBursts::10           23272                       # Per bank write bursts
system.mem_ctrls1.perBankRdBursts::11           22844                       # Per bank write bursts
system.mem_ctrls1.perBankRdBursts::12           21561                       # Per bank write bursts
system.mem_ctrls1.perBankRdBursts::13           21272                       # Per bank write bursts
system.mem_ctrls1.perBankRdBursts::14           21187                       # Per bank write bursts
system.mem_ctrls1.perBankRdBursts::15           23171                       # Per bank write bursts
system.mem_ctrls1.perBankRdBursts::16           22704                       # Per bank write bursts
system.mem_ctrls1.perBankRdBursts::17           24681                       # Per bank write bursts
system.mem_ctrls1.perBankRdBursts::18           23992                       # Per bank write bursts
system.mem_ctrls1.perBankRdBursts::19           22282                       # Per bank write bursts
system.mem_ctrls1.perBankRdBursts::20           22450                       # Per bank write bursts
system.mem_ctrls1.perBankRdBursts::21           22129                       # Per bank write bursts
system.mem_ctrls1.perBankRdBursts::22           22413                       # Per bank write bursts
system.mem_ctrls1.perBankRdBursts::23           22311                       # Per bank write bursts
system.mem_ctrls1.perBankRdBursts::24           21272                       # Per bank write bursts
system.mem_ctrls1.perBankRdBursts::25           19867                       # Per bank write bursts
system.mem_ctrls1.perBankRdBursts::26           21549                       # Per bank write bursts
system.mem_ctrls1.perBankRdBursts::27           20928                       # Per bank write bursts
system.mem_ctrls1.perBankRdBursts::28           21456                       # Per bank write bursts
system.mem_ctrls1.perBankRdBursts::29           23288                       # Per bank write bursts
system.mem_ctrls1.perBankRdBursts::30           23769                       # Per bank write bursts
system.mem_ctrls1.perBankRdBursts::31           20824                       # Per bank write bursts
system.mem_ctrls1.perBankWrBursts::0            17999                       # Per bank write bursts
system.mem_ctrls1.perBankWrBursts::1            18005                       # Per bank write bursts
system.mem_ctrls1.perBankWrBursts::2            17671                       # Per bank write bursts
system.mem_ctrls1.perBankWrBursts::3            19246                       # Per bank write bursts
[...]
system.switch_cpus_13.iew.memOrderViolationEvents        12814                       # Number of memory order violations
system.switch_cpus_13.iew.predictedTakenIncorrect      5889604                       # Number of branches that were predicted taken incorrectly
system.switch_cpus_13.iew.predictedNotTakenIncorrect     16247846                       # Number of branches that were predicted not taken incorrectly
system.switch_cpus_13.iew.branchMispredicts     22137450                       # Number of branch mispredicts detected at execute
system.switch_cpus_13.iew.iewExecutedInsts   1379487049                       # Number of executed instructions
system.switch_cpus_13.iew.iewExecLoadInsts    132421243                       # Number of load instructions executed
system.switch_cpus_13.iew.iewExecSquashedInsts     28159910                       # Number of squashed instructions skipped in execute
system.switch_cpus_13.iew.exec_swp                  0                       # number of swp insts executed
system.switch_cpus_13.iew.exec_nop                  0                       # number of nop insts executed
system.switch_cpus_13.iew.exec_refs         198204895                       # number of memory reference insts executed
system.switch_cpus_13.iew.exec_branches     153815856                       # Number of branches executed
system.switch_cpus_13.iew.exec_stores        65783652                       # Number of stores executed
system.switch_cpus_13.iew.exec_rate          1.742400                       # Inst execution rate
system.switch_cpus_13.iew.wb_sent          1365674488                       # cumulative count of insts sent to commit
system.switch_cpus_13.iew.wb_count         1362541650                       # cumulative count of insts written-back
system.switch_cpus_13.iew.wb_producers     1025476031                       # num instructions producing a value
system.switch_cpus_13.iew.wb_consumers     1997263845                       # num instructions consuming a value
system.switch_cpus_13.iew.wb_rate            1.720997                       # insts written-back per cycle
system.switch_cpus_13.iew.wb_fanout          0.513440                       # average fanout of values written-back
system.switch_cpus_13.commit.commitSquashedInsts    524647660                       # The number of squashed insts skipped by commit
system.switch_cpus_13.commit.commitNonSpecStalls         1115                       # The number of times commit has been forced to stall to communicate backwards
system.switch_cpus_13.commit.branchMispredicts     18833696                       # The number of times a branch was mispredicted
system.switch_cpus_13.commit.committed_per_cycle::samples    711029148                       # Number of insts commited each cycle
system.switch_cpus_13.commit.committed_per_cycle::mean     1.550265                       # Number of insts commited each cycle
system.switch_cpus_13.commit.committed_per_cycle::stdev     2.313691                       # Number of insts commited each cycle
system.switch_cpus_13.commit.committed_per_cycle::underflows            0      0.00%      0.00% # Number of insts commited each cycle
system.switch_cpus_13.commit.committed_per_cycle::0    362051960     50.92%     50.92% # Number of insts commited each cycle
system.switch_cpus_13.commit.committed_per_cycle::1    119057176     16.74%     67.66% # Number of insts commited each cycle
system.switch_cpus_13.commit.committed_per_cycle::2     61484133      8.65%     76.31% # Number of insts commited each cycle
system.switch_cpus_13.commit.committed_per_cycle::3     60041666      8.44%     84.76% # Number of insts commited each cycle
system.switch_cpus_13.commit.committed_per_cycle::4     32899418      4.63%     89.38% # Number of insts commited each cycle
system.switch_cpus_13.commit.committed_per_cycle::5     11006911      1.55%     90.93% # Number of insts commited each cycle
system.switch_cpus_13.commit.committed_per_cycle::6      8481884      1.19%     92.12% # Number of insts commited each cycle
system.switch_cpus_13.commit.committed_per_cycle::7      5438401      0.76%     92.89% # Number of insts commited each cycle
system.switch_cpus_13.commit.committed_per_cycle::8     50567599      7.11%    100.00% # Number of insts commited each cycle
system.switch_cpus_13.commit.committed_per_cycle::overflows            0      0.00%    100.00% # Number of insts commited each cycle
system.switch_cpus_13.commit.committed_per_cycle::min_value            0                       # Number of insts commited each cycle
system.switch_cpus_13.commit.committed_per_cycle::max_value            8                       # Number of insts commited each cycle
system.switch_cpus_13.commit.committed_per_cycle::total    711029148                       # Number of insts commited each cycle
system.switch_cpus_13.commit.committedInsts    499853287                       # Number of instructions committed
system.switch_cpus_13.commit.committedOps   1102283570                       # Number of ops (including micro ops) committed
system.switch_cpus_13.commit.swp_count              0                       # Number of s/w prefetches committed
system.switch_cpus_13.commit.refs           153726422                       # Number of memory references committed
system.switch_cpus_13.commit.loads          100645497                       # Number of loads committed
system.switch_cpus_13.commit.membars              120                       # Number of memory barriers committed
system.switch_cpus_13.commit.branches       131418052                       # Number of branches committed
system.switch_cpus_13.commit.vec_insts              0                       # Number of committed Vector instructions.
system.switch_cpus_13.commit.fp_insts        46744152                       # Number of committed floating point instructions.
system.switch_cpus_13.commit.int_insts     1043848506                       # Number of committed integer instructions.
system.switch_cpus_13.commit.function_calls      5683394                       # Number of function calls committed.
system.switch_cpus_13.commit.op_class_0::No_OpClass     32503634      2.95%      2.95% # Class of committed instruction
system.switch_cpus_13.commit.op_class_0::IntAlu    868958891     78.83%     81.78% # Class of committed instruction
system.switch_cpus_13.commit.op_class_0::IntMult           12      0.00%     81.78% # Class of committed instruction
system.switch_cpus_13.commit.op_class_0::IntDiv     14470001      1.31%     83.09% # Class of committed instruction
system.switch_cpus_13.commit.op_class_0::FloatAdd       509921      0.05%     83.14% # Class of committed instruction
system.switch_cpus_13.commit.op_class_0::FloatCmp            0      0.00%     83.14% # Class of committed instruction
system.switch_cpus_13.commit.op_class_0::FloatCvt            0      0.00%     83.14% # Class of committed instruction
system.switch_cpus_13.commit.op_class_0::FloatMult            0      0.00%     83.14% # Class of committed instruction
system.switch_cpus_13.commit.op_class_0::FloatMultAcc            0      0.00%     83.14% # Class of committed instruction
system.switch_cpus_13.commit.op_class_0::FloatDiv            0      0.00%     83.14% # Class of committed instruction
system.switch_cpus_13.commit.op_class_0::FloatMisc            0      0.00%     83.14% # Class of committed instruction
system.switch_cpus_13.commit.op_class_0::FloatSqrt            0      0.00%     83.14% # Class of committed instruction
system.switch_cpus_13.commit.op_class_0::SimdAdd      3189106      0.29%     83.43% # Class of committed instruction
system.switch_cpus_13.commit.op_class_0::SimdAddAcc            0      0.00%     83.43% # Class of committed instruction
system.switch_cpus_13.commit.op_class_0::SimdAlu      7478115      0.68%     84.11% # Class of committed instruction
system.switch_cpus_13.commit.op_class_0::SimdCmp       666792      0.06%     84.17% # Class of committed instruction
system.switch_cpus_13.commit.op_class_0::SimdCvt     10223236      0.93%     85.10% # Class of committed instruction
system.switch_cpus_13.commit.op_class_0::SimdMisc      8447506      0.77%     85.86% # Class of committed instruction
system.switch_cpus_13.commit.op_class_0::SimdMult            0      0.00%     85.86% # Class of committed instruction
system.switch_cpus_13.commit.op_class_0::SimdMultAcc            0      0.00%     85.86% # Class of committed instruction
system.switch_cpus_13.commit.op_class_0::SimdShift      1332440      0.12%     85.98% # Class of committed instruction
system.switch_cpus_13.commit.op_class_0::SimdShiftAcc            0      0.00%     85.98% # Class of committed instruction
system.switch_cpus_13.commit.op_class_0::SimdSqrt            0      0.00%     85.98% # Class of committed instruction
system.switch_cpus_13.commit.op_class_0::SimdFloatAdd           23      0.00%     85.98% # Class of committed instruction
system.switch_cpus_13.commit.op_class_0::SimdFloatAlu            0      0.00%     85.98% # Class of committed instruction
system.switch_cpus_13.commit.op_class_0::SimdFloatCmp            0      0.00%     85.98% # Class of committed instruction
system.switch_cpus_13.commit.op_class_0::SimdFloatCvt       777423      0.07%     86.05% # Class of committed instruction
system.switch_cpus_13.commit.op_class_0::SimdFloatDiv            0      0.00%     86.05% # Class of committed instruction
system.switch_cpus_13.commit.op_class_0::SimdFloatMisc            0      0.00%     86.05% # Class of committed instruction
system.switch_cpus_13.commit.op_class_0::SimdFloatMult           48      0.00%     86.05% # Class of committed instruction
system.switch_cpus_13.commit.op_class_0::SimdFloatMultAcc            0      0.00%     86.05% # Class of committed instruction
system.switch_cpus_13.commit.op_class_0::SimdFloatSqrt            0      0.00%     86.05% # Class of committed instruction
system.switch_cpus_13.commit.op_class_0::SimdAes            0      0.00%     86.05% # Class of committed instruction
system.switch_cpus_13.commit.op_class_0::SimdAesMix            0      0.00%     86.05% # Class of committed instruction
system.switch_cpus_13.commit.op_class_0::SimdSha1Hash            0      0.00%     86.05% # Class of committed instruction
system.switch_cpus_13.commit.op_class_0::SimdSha1Hash2            0      0.00%     86.05% # Class of committed instruction
system.switch_cpus_13.commit.op_class_0::SimdSha256Hash            0      0.00%     86.05% # Class of committed instruction
system.switch_cpus_13.commit.op_class_0::SimdSha256Hash2            0      0.00%     86.05% # Class of committed instruction
system.switch_cpus_13.commit.op_class_0::SimdShaSigma2            0      0.00%     86.05% # Class of committed instruction
system.switch_cpus_13.commit.op_class_0::SimdShaSigma3            0      0.00%     86.05% # Class of committed instruction
system.switch_cpus_13.commit.op_class_0::MemRead     87940316      7.98%     94.03% # Class of committed instruction
system.switch_cpus_13.commit.op_class_0::MemWrite     52131650      4.73%     98.76% # Class of committed instruction
system.switch_cpus_13.commit.op_class_0::FloatMemRead     12705181      1.15%     99.91% # Class of committed instruction
system.switch_cpus_13.commit.op_class_0::FloatMemWrite       949275      0.09%    100.00% # Class of committed instruction
system.switch_cpus_13.commit.op_class_0::IprAccess            0      0.00%    100.00% # Class of committed instruction
system.switch_cpus_13.commit.op_class_0::InstPrefetch            0      0.00%    100.00% # Class of committed instruction
system.switch_cpus_13.commit.op_class_0::total   1102283570                       # Class of committed instruction
system.switch_cpus_13.commit.bw_lim_events     50567599                       # number cycles where commit BW limit reached
system.switch_cpus_13.rob.rob_reads        2287392779                       # The number of ROB reads
system.switch_cpus_13.rob.rob_writes       3335076777                       # The number of ROB writes
system.switch_cpus_13.timesIdled                 5566                       # Number of times that the entire CPU went into an idle state and unscheduled itself
system.switch_cpus_13.idleCycles               224332                       # Total number of cycles that the CPU has spent unscheduled due to idling
system.switch_cpus_13.committedInsts        499853287                       # Number of Instructions Simulated
system.switch_cpus_13.committedOps         1102283570                       # Number of Ops (including micro ops) Simulated
system.switch_cpus_13.cpi                    1.583898                       # CPI: Cycles Per Instruction
system.switch_cpus_13.cpi_total              1.583898                       # CPI: Total CPI of All Threads
system.switch_cpus_13.ipc                    0.631354                       # IPC: Instructions Per Cycle
system.switch_cpus_13.ipc_total              0.631354                       # IPC: Total IPC of All Threads
system.switch_cpus_13.int_regfile_reads    2016927351                       # number of integer regfile reads
system.switch_cpus_13.int_regfile_writes   1109733683                       # number of integer regfile writes
system.switch_cpus_13.fp_regfile_reads       91330902                       # number of floating regfile reads
system.switch_cpus_13.fp_regfile_writes      50094354                       # number of floating regfile writes
system.switch_cpus_13.cc_regfile_reads      979320243                       # number of cc regfile reads
system.switch_cpus_13.cc_regfile_writes     497329296                       # number of cc regfile writes
system.switch_cpus_13.misc_regfile_reads    458790591                       # number of misc regfile reads
system.tol3bus.snoop_filter.tot_requests      8289156                       # Total number of requests made to the snoop filter.
system.tol3bus.snoop_filter.hit_single_requests      4148695                       # Number of requests hitting in the snoop filter with a single holder of the requested data.
system.tol3bus.snoop_filter.hit_multi_requests            0                       # Number of requests hitting in the snoop filter with multiple (>1) holders of the requested data.
system.tol3bus.snoop_filter.tot_snoops           4532                       # Total number of snoops made to the snoop filter.
system.tol3bus.snoop_filter.hit_single_snoops         4532                       # Number of snoops hitting in the snoop filter with a single holder of the requested data.
system.tol3bus.snoop_filter.hit_multi_snoops            0                       # Number of snoops hitting in the snoop filter with multiple (>1) holders of the requested data.
system.tol3bus.pwrStateResidencyTicks::UNDEFINED 258362009500                       # Cumulative time (in ticks) in various power states
system.tol3bus.trans_dist::ReadResp           3576004                       # Transaction distribution
system.tol3bus.trans_dist::WritebackDirty      4296273                       # Transaction distribution
system.tol3bus.trans_dist::CleanEvict         1251779                       # Transaction distribution
system.tol3bus.trans_dist::UpgradeReq             118                       # Transaction distribution
system.tol3bus.trans_dist::UpgradeResp            118                       # Transaction distribution
system.tol3bus.trans_dist::ReadExReq           565694                       # Transaction distribution
system.tol3bus.trans_dist::ReadExResp          565693                       # Transaction distribution
system.tol3bus.trans_dist::ReadSharedReq      3576004                       # Transaction distribution
system.tol3bus.pkt_count_system.cpu0.l2cache.mem_side::system.l3.cpu_side      3091554                       # Packet count per connected master and slave (bytes)
system.tol3bus.pkt_count_system.cpu1.l2cache.mem_side::system.l3.cpu_side      3103239                       # Packet count per connected master and slave (bytes)
system.tol3bus.pkt_count_system.cpu2.l2cache.mem_side::system.l3.cpu_side      3128145                       # Packet count per connected master and slave (bytes)
system.tol3bus.pkt_count_system.cpu3.l2cache.mem_side::system.l3.cpu_side      3108033                       # Packet count per connected master and slave (bytes)
system.tol3bus.pkt_count::total              12430971                       # Packet count per connected master and slave (bytes)
system.tol3bus.pkt_size_system.cpu0.l2cache.mem_side::system.l3.cpu_side    114769856                       # Cumulative packet size per connected master and slave (bytes)
system.tol3bus.pkt_size_system.cpu1.l2cache.mem_side::system.l3.cpu_side    114527680                       # Cumulative packet size per connected master and slave (bytes)
system.tol3bus.pkt_size_system.cpu2.l2cache.mem_side::system.l3.cpu_side    114864704                       # Cumulative packet size per connected master and slave (bytes)
system.tol3bus.pkt_size_system.cpu3.l2cache.mem_side::system.l3.cpu_side    115225536                       # Cumulative packet size per connected master and slave (bytes)
system.tol3bus.pkt_size::total              459387776                       # Cumulative packet size per connected master and slave (bytes)
system.tol3bus.snoops                         1400712                       # Total snoops (count)
system.tol3bus.snoopTraffic                  80642304                       # Total snoop traffic (bytes)
system.tol3bus.snoop_fanout::samples          5542528                       # Request fanout histogram
system.tol3bus.snoop_fanout::mean            0.000818                       # Request fanout histogram
system.tol3bus.snoop_fanout::stdev           0.028583                       # Request fanout histogram
system.tol3bus.snoop_fanout::underflows             0      0.00%      0.00% # Request fanout histogram
system.tol3bus.snoop_fanout::0                5537996     99.92%     99.92% # Request fanout histogram
system.tol3bus.snoop_fanout::1                   4532      0.08%    100.00% # Request fanout histogram
system.tol3bus.snoop_fanout::2                      0      0.00%    100.00% # Request fanout histogram
system.tol3bus.snoop_fanout::3                      0      0.00%    100.00% # Request fanout histogram
system.tol3bus.snoop_fanout::4                      0      0.00%    100.00% # Request fanout histogram
system.tol3bus.snoop_fanout::overflows              0      0.00%    100.00% # Request fanout histogram
system.tol3bus.snoop_fanout::min_value              0                       # Request fanout histogram
system.tol3bus.snoop_fanout::max_value              1                       # Request fanout histogram
system.tol3bus.snoop_fanout::total            5542528                       # Request fanout histogram
system.tol3bus.reqLayer0.occupancy         3590407500                       # Layer occupancy (ticks)
system.tol3bus.reqLayer0.utilization              1.8                       # Layer utilization (%)
system.tol3bus.respLayer0.occupancy         773214147                       # Layer occupancy (ticks)
system.tol3bus.respLayer0.utilization             0.4                       # Layer utilization (%)
system.tol3bus.respLayer1.occupancy         776193840                       # Layer occupancy (ticks)
system.tol3bus.respLayer1.utilization             0.4                       # Layer utilization (%)
system.tol3bus.respLayer2.occupancy         781958861                       # Layer occupancy (ticks)
system.tol3bus.respLayer2.utilization             0.4                       # Layer utilization (%)
system.tol3bus.respLayer3.occupancy         777229139                       # Layer occupancy (ticks)
system.tol3bus.respLayer3.utilization             0.4                       # Layer utilization (%)

---------- End Simulation Statistics   ----------
