
---------- Begin Simulation Statistics ----------
sim_seconds                                  0.126613                       # Number of seconds simulated
sim_ticks                                126612683500                       # Number of ticks simulated
final_tick                               183846612250                       # Number of ticks from beginning of simulation (restored from checkpoints and never reset)
sim_freq                                 1000000000000                       # Frequency of simulated ticks
host_inst_rate                                 112005                       # Simulator instruction rate (inst/s)
host_op_rate                                   208515                       # Simulator op (including micro ops) rate (op/s)
host_tick_rate                                5921136                       # Simulator tick rate (ticks/s)
host_mem_usage                               17325060                       # Number of bytes of host memory used
host_seconds                                 21383.17                       # Real time elapsed on the host
sim_insts                                  2395013445                       # Number of instructions simulated
sim_ops                                    4458722082                       # Number of ops (including micro ops) simulated
system.voltage_domain.voltage                       1                       # Voltage in Volts
system.clk_domain.clock                          1000                       # Clock period in ticks
system.mem_ctrls0.pwrStateResidencyTicks::UNDEFINED 183846612250                       # Cumulative time (in ticks) in various power states
system.mem_ctrls0.bytes_read::.switch_cpus_10.inst        12416                       # Number of bytes read from this memory
system.mem_ctrls0.bytes_read::.switch_cpus_10.data         7744                       # Number of bytes read from this memory
system.mem_ctrls0.bytes_read::.switch_cpus_11.inst        14656                       # Number of bytes read from this memory
system.mem_ctrls0.bytes_read::.switch_cpus_11.data         8064                       # Number of bytes read from this memory
system.mem_ctrls0.bytes_read::.switch_cpus_12.inst        13056                       # Number of bytes read from this memory
system.mem_ctrls0.bytes_read::.switch_cpus_12.data         7360                       # Number of bytes read from this memory
system.mem_ctrls0.bytes_read::.switch_cpus_13.inst        14848                       # Number of bytes read from this memory
system.mem_ctrls0.bytes_read::.switch_cpus_13.data         7744                       # Number of bytes read from this memory
system.mem_ctrls0.bytes_read::total             85888                       # Number of bytes read from this memory
system.mem_ctrls0.bytes_inst_read::.switch_cpus_10.inst        12416                       # Number of instructions bytes read from this memory
system.mem_ctrls0.bytes_inst_read::.switch_cpus_11.inst        14656                       # Number of instructions bytes read from this memory
system.mem_ctrls0.bytes_inst_read::.switch_cpus_12.inst        13056                       # Number of instructions bytes read from this memory
system.mem_ctrls0.bytes_inst_read::.switch_cpus_13.inst        14848                       # Number of instructions bytes read from this memory
system.mem_ctrls0.bytes_inst_read::total        54976                       # Number of instructions bytes read from this memory
system.mem_ctrls0.bytes_written::.writebacks        79936                       # Number of bytes written to this memory
system.mem_ctrls0.bytes_written::total          79936                       # Number of bytes written to this memory
system.mem_ctrls0.num_reads::.switch_cpus_10.inst          194                       # Number of read requests responded to by this memory
system.mem_ctrls0.num_reads::.switch_cpus_10.data          121                       # Number of read requests responded to by this memory
system.mem_ctrls0.num_reads::.switch_cpus_11.inst          229                       # Number of read requests responded to by this memory
system.mem_ctrls0.num_reads::.switch_cpus_11.data          126                       # Number of read requests responded to by this memory
system.mem_ctrls0.num_reads::.switch_cpus_12.inst          204                       # Number of read requests responded to by this memory
system.mem_ctrls0.num_reads::.switch_cpus_12.data          115                       # Number of read requests responded to by this memory
system.mem_ctrls0.num_reads::.switch_cpus_13.inst          232                       # Number of read requests responded to by this memory
system.mem_ctrls0.num_reads::.switch_cpus_13.data          121                       # Number of read requests responded to by this memory
system.mem_ctrls0.num_reads::total               1342                       # Number of read requests responded to by this memory
system.mem_ctrls0.num_writes::.writebacks         1249                       # Number of write requests responded to by this memory
system.mem_ctrls0.num_writes::total              1249                       # Number of write requests responded to by this memory
system.mem_ctrls0.bw_read::.switch_cpus_10.inst        98063                       # Total read bandwidth from this memory (bytes/s)
system.mem_ctrls0.bw_read::.switch_cpus_10.data        61163                       # Total read bandwidth from this memory (bytes/s)
system.mem_ctrls0.bw_read::.switch_cpus_11.inst       115755                       # Total read bandwidth from this memory (bytes/s)
system.mem_ctrls0.bw_read::.switch_cpus_11.data        63690                       # Total read bandwidth from this memory (bytes/s)
system.mem_ctrls0.bw_read::.switch_cpus_12.inst       103118                       # Total read bandwidth from this memory (bytes/s)
system.mem_ctrls0.bw_read::.switch_cpus_12.data        58130                       # Total read bandwidth from this memory (bytes/s)
system.mem_ctrls0.bw_read::.switch_cpus_13.inst       117271                       # Total read bandwidth from this memory (bytes/s)
system.mem_ctrls0.bw_read::.switch_cpus_13.data        61163                       # Total read bandwidth from this memory (bytes/s)
system.mem_ctrls0.bw_read::total               678352                       # Total read bandwidth from this memory (bytes/s)
system.mem_ctrls0.bw_inst_read::.switch_cpus_10.inst        98063                       # Instruction read bandwidth from this memory (bytes/s)
system.mem_ctrls0.bw_inst_read::.switch_cpus_11.inst       115755                       # Instruction read bandwidth from this memory (bytes/s)
system.mem_ctrls0.bw_inst_read::.switch_cpus_12.inst       103118                       # Instruction read bandwidth from this memory (bytes/s)
system.mem_ctrls0.bw_inst_read::.switch_cpus_13.inst       117271                       # Instruction read bandwidth from this memory (bytes/s)
system.mem_ctrls0.bw_inst_read::total          434206                       # Instruction read bandwidth from this memory (bytes/s)
system.mem_ctrls0.bw_write::.writebacks        631343                       # Write bandwidth from this memory (bytes/s)
system.mem_ctrls0.bw_write::total              631343                       # Write bandwidth from this memory (bytes/s)
system.mem_ctrls0.bw_total::.writebacks        631343                       # Total bandwidth to/from this memory (bytes/s)
system.mem_ctrls0.bw_total::.switch_cpus_10.inst        98063                       # Total bandwidth to/from this memory (bytes/s)
system.mem_ctrls0.bw_total::.switch_cpus_10.data        61163                       # Total bandwidth to/from this memory (bytes/s)
system.mem_ctrls0.bw_total::.switch_cpus_11.inst       115755                       # Total bandwidth to/from this memory (bytes/s)
system.mem_ctrls0.bw_total::.switch_cpus_11.data        63690                       # Total bandwidth to/from this memory (bytes/s)
system.mem_ctrls0.bw_total::.switch_cpus_12.inst       103118                       # Total bandwidth to/from this memory (bytes/s)
system.mem_ctrls0.bw_total::.switch_cpus_12.data        58130                       # Total bandwidth to/from this memory (bytes/s)
system.mem_ctrls0.bw_total::.switch_cpus_13.inst       117271                       # Total bandwidth to/from this memory (bytes/s)
system.mem_ctrls0.bw_total::.switch_cpus_13.data        61163                       # Total bandwidth to/from this memory (bytes/s)
system.mem_ctrls0.bw_total::total             1309695                       # Total bandwidth to/from this memory (bytes/s)
system.mem_ctrls0.avgPriority_.writebacks::samples      1249.00                       # Average QoS priority value for accepted requests
system.mem_ctrls0.avgPriority_.switch_cpus_10.inst::samples       194.00                       # Average QoS priority value for accepted requests
system.mem_ctrls0.avgPriority_.switch_cpus_10.data::samples       121.00                       # Average QoS priority value for accepted requests
system.mem_ctrls0.avgPriority_.switch_cpus_11.inst::samples       229.00                       # Average QoS priority value for accepted requests
system.mem_ctrls0.avgPriority_.switch_cpus_11.data::samples       126.00                       # Average QoS priority value for accepted requests
system.mem_ctrls0.avgPriority_.switch_cpus_12.inst::samples       204.00                       # Average QoS priority value for accepted requests
system.mem_ctrls0.avgPriority_.switch_cpus_12.data::samples       115.00                       # Average QoS priority value for accepted requests
system.mem_ctrls0.avgPriority_.switch_cpus_13.inst::samples       232.00                       # Average QoS priority value for accepted requests
system.mem_ctrls0.avgPriority_.switch_cpus_13.data::samples       121.00                       # Average QoS priority value for accepted requests
system.mem_ctrls0.priorityMinLatency     0.000000017860                       # per QoS priority minimum request to response latency (s)
system.mem_ctrls0.priorityMaxLatency     0.130271778800                       # per QoS priority maximum request to response latency (s)
system.mem_ctrls0.numReadWriteTurnArounds           68                       # Number of turnarounds from READ to WRITE
system.mem_ctrls0.numWriteReadTurnArounds           68                       # Number of turnarounds from WRITE to READ
system.mem_ctrls0.numStayReadState               4477                       # Number of times bus staying in READ state
system.mem_ctrls0.numStayWriteState              1140                       # Number of times bus staying in WRITE state
system.mem_ctrls0.readReqs                       1342                       # Number of read requests accepted
system.mem_ctrls0.writeReqs                      1249                       # Number of write requests accepted
system.mem_ctrls0.readBursts                     1342                       # Number of DRAM read bursts, including those serviced by the write queue
system.mem_ctrls0.writeBursts                    1249                       # Number of DRAM write bursts, including those merged in the write queue
system.mem_ctrls0.bytesReadDRAM                 85888                       # Total number of bytes read from DRAM
system.mem_ctrls0.bytesReadWrQ                      0                       # Total number of bytes read from write queue
system.mem_ctrls0.bytesWritten                  76736                       # Total number of bytes written to DRAM
system.mem_ctrls0.bytesReadSys                  85888                       # Total read bytes from the system interface side
system.mem_ctrls0.bytesWrittenSys               79936                       # Total written bytes from the system interface side
system.mem_ctrls0.servicedByWrQ                     0                       # Number of DRAM read bursts serviced by the write queue
system.mem_ctrls0.mergedWrBursts                    0                       # Number of DRAM write bursts merged with an existing one
system.mem_ctrls0.neitherReadNorWriteReqs            0                       # Number of requests that are neither read nor write
system.mem_ctrls0.perBankRdBursts::0               43                       # Per bank write bursts
system.mem_ctrls0.perBankRdBursts::1               40                       # Per bank write bursts
system.mem_ctrls0.perBankRdBursts::2               59                       # Per bank write bursts
system.mem_ctrls0.perBankRdBursts::3               72                       # Per bank write bursts
system.mem_ctrls0.perBankRdBursts::4               60                       # Per bank write bursts
system.mem_ctrls0.perBankRdBursts::5               35                       # Per bank write bursts
system.mem_ctrls0.perBankRdBursts::6               29                       # Per bank write bursts
system.mem_ctrls0.perBankRdBursts::7               35                       # Per bank write bursts
system.mem_ctrls0.perBankRdBursts::8               21                       # Per bank write bursts
system.mem_ctrls0.perBankRdBursts::9               23                       # Per bank write bursts
system.mem_ctrls0.perBankRdBursts::10              22                       # Per bank write bursts
system.mem_ctrls0.perBankRdBursts::11              48                       # Per bank write bursts
system.mem_ctrls0.perBankRdBursts::12              96                       # Per bank write bursts
system.mem_ctrls0.perBankRdBursts::13              38                       # Per bank write bursts
system.mem_ctrls0.perBankRdBursts::14              31                       # Per bank write bursts
system.mem_ctrls0.perBankRdBursts::15              35                       # Per bank write bursts
system.mem_ctrls0.perBankRdBursts::16              43                       # Per bank write bursts
system.mem_ctrls0.perBankRdBursts::17              35                       # Per bank write bursts
system.mem_ctrls0.perBankRdBursts::18              25                       # Per bank write bursts
system.mem_ctrls0.perBankRdBursts::19              45                       # Per bank write bursts
system.mem_ctrls0.perBankRdBursts::20              81                       # Per bank write bursts
system.mem_ctrls0.perBankRdBursts::21              63                       # Per bank write bursts
system.mem_ctrls0.perBankRdBursts::22              52                       # Per bank write bursts
system.mem_ctrls0.perBankRdBursts::23              35                       # Per bank write bursts
system.mem_ctrls0.perBankRdBursts::24              19                       # Per bank write bursts
system.mem_ctrls0.perBankRdBursts::25               7                       # Per bank write bursts
system.mem_ctrls0.perBankRdBursts::26              49                       # Per bank write bursts
system.mem_ctrls0.perBankRdBursts::27              62                       # Per bank write bursts
system.mem_ctrls0.perBankRdBursts::28              42                       # Per bank write bursts
system.mem_ctrls0.perBankRdBursts::29              43                       # Per bank write bursts
system.mem_ctrls0.perBankRdBursts::30              30                       # Per bank write bursts
system.mem_ctrls0.perBankRdBursts::31              24                       # Per bank write bursts
system.mem_ctrls0.perBankWrBursts::0               48                       # Per bank write bursts
system.mem_ctrls0.perBankWrBursts::1               35                       # Per bank write bursts
system.mem_ctrls0.perBankWrBursts::2               55                       # Per bank write bursts
system.mem_ctrls0.perBankWrBursts::3               68                       # Per bank write bursts
system.mem_ctrls0.perBankWrBursts::4               45                       # Per bank write bursts
system.mem_ctrls0.perBankWrBursts::5               27                       # Per bank write bursts
system.mem_ctrls0.perBankWrBursts::6               27                       # Per bank write bursts
system.mem_ctrls0.perBankWrBursts::7               32                       # Per bank write bursts
system.mem_ctrls0.perBankWrBursts::8               19                       # Per bank write bursts
system.mem_ctrls0.perBankWrBursts::9               18                       # Per bank write bursts
system.mem_ctrls0.perBankWrBursts::10              24                       # Per bank write bursts
system.mem_ctrls0.perBankWrBursts::11              46                       # Per bank write bursts
system.mem_ctrls0.perBankWrBursts::12              88                       # Per bank write bursts
system.mem_ctrls0.perBankWrBursts::13              43                       # Per bank write bursts
system.mem_ctrls0.perBankWrBursts::14              24                       # Per bank write bursts
system.mem_ctrls0.perBankWrBursts::15              31                       # Per bank write bursts
system.mem_ctrls0.perBankWrBursts::16              40                       # Per bank write bursts
system.mem_ctrls0.perBankWrBursts::17              30                       # Per bank write bursts
system.mem_ctrls0.perBankWrBursts::18              22                       # Per bank write bursts
system.mem_ctrls0.perBankWrBursts::19              50                       # Per bank write bursts
system.mem_ctrls0.perBankWrBursts::20              63                       # Per bank write bursts
system.mem_ctrls0.perBankWrBursts::21              63                       # Per bank write bursts
system.mem_ctrls0.perBankWrBursts::22              33                       # Per bank write bursts
system.mem_ctrls0.perBankWrBursts::23              21                       # Per bank write bursts
system.mem_ctrls0.perBankWrBursts::24              15                       # Per bank write bursts
system.mem_ctrls0.perBankWrBursts::25               7                       # Per bank write bursts
system.mem_ctrls0.perBankWrBursts::26              49                       # Per bank write bursts
system.mem_ctrls0.perBankWrBursts::27              49                       # Per bank write bursts
system.mem_ctrls0.perBankWrBursts::28              40                       # Per bank write bursts
system.mem_ctrls0.perBankWrBursts::29              42                       # Per bank write bursts
system.mem_ctrls0.perBankWrBursts::30              28                       # Per bank write bursts
system.mem_ctrls0.perBankWrBursts::31              17                       # Per bank write bursts
system.mem_ctrls0.numRdRetry                        0                       # Number of times read queue was full causing retry
system.mem_ctrls0.numWrRetry                        0                       # Number of times write queue was full causing retry
system.mem_ctrls0.totGap                 125596658000                       # Total gap between requests
system.mem_ctrls0.readPktSize::0                    0                       # Read request sizes (log2)
system.mem_ctrls0.readPktSize::1                    0                       # Read request sizes (log2)
system.mem_ctrls0.readPktSize::2                    0                       # Read request sizes (log2)
system.mem_ctrls0.readPktSize::3                    0                       # Read request sizes (log2)
system.mem_ctrls0.readPktSize::4                    0                       # Read request sizes (log2)
system.mem_ctrls0.readPktSize::5                    0                       # Read request sizes (log2)
system.mem_ctrls0.readPktSize::6                 1342                       # Read request sizes (log2)
system.mem_ctrls0.writePktSize::0                   0                       # Write request sizes (log2)
system.mem_ctrls0.writePktSize::1                   0                       # Write request sizes (log2)
system.mem_ctrls0.writePktSize::2                   0                       # Write request sizes (log2)
system.mem_ctrls0.writePktSize::3                   0                       # Write request sizes (log2)
system.mem_ctrls0.writePktSize::4                   0                       # Write request sizes (log2)
system.mem_ctrls0.writePktSize::5                   0                       # Write request sizes (log2)
system.mem_ctrls0.writePktSize::6                1249                       # Write request sizes (log2)
system.mem_ctrls0.rdQLenPdf::0                   1071                       # What read queue length does an incoming req see
system.mem_ctrls0.rdQLenPdf::1                    159                       # What read queue length does an incoming req see
system.mem_ctrls0.rdQLenPdf::2                     46                       # What read queue length does an incoming req see
system.mem_ctrls0.rdQLenPdf::3                     34                       # What read queue length does an incoming req see
system.mem_ctrls0.rdQLenPdf::4                     16                       # What read queue length does an incoming req see
system.mem_ctrls0.rdQLenPdf::5                      9                       # What read queue length does an incoming req see
system.mem_ctrls0.rdQLenPdf::6                      2                       # What read queue length does an incoming req see
system.mem_ctrls0.rdQLenPdf::7                      2                       # What read queue length does an incoming req see
system.mem_ctrls0.rdQLenPdf::8                      1                       # What read queue length does an incoming req see
system.mem_ctrls0.rdQLenPdf::9                      1                       # What read queue length does an incoming req see
system.mem_ctrls0.rdQLenPdf::10                     1                       # What read queue length does an incoming req see
system.mem_ctrls0.rdQLenPdf::11                     0                       # What read queue length does an incoming req see
system.mem_ctrls0.rdQLenPdf::12                     0                       # What read queue length does an incoming req see
system.mem_ctrls0.rdQLenPdf::13                     0                       # What read queue length does an incoming req see
system.mem_ctrls0.rdQLenPdf::14                     0                       # What read queue length does an incoming req see
system.mem_ctrls0.rdQLenPdf::15                     0                       # What read queue length does an incoming req see
system.mem_ctrls0.rdQLenPdf::16                     0                       # What read queue length does an incoming req see
system.mem_ctrls0.rdQLenPdf::17                     0                       # What read queue length does an incoming req see
system.mem_ctrls0.rdQLenPdf::18                     0                       # What read queue length does an incoming req see
system.mem_ctrls0.rdQLenPdf::19                     0                       # What read queue length does an incoming req see
system.mem_ctrls0.rdQLenPdf::20                     0                       # What read queue length does an incoming req see
system.mem_ctrls0.rdQLenPdf::21                     0                       # What read queue length does an incoming req see
system.mem_ctrls0.rdQLenPdf::22                     0                       # What read queue length does an incoming req see
system.mem_ctrls0.rdQLenPdf::23                     0                       # What read queue length does an incoming req see
system.mem_ctrls0.rdQLenPdf::24                     0                       # What read queue length does an incoming req see
system.mem_ctrls0.rdQLenPdf::25                     0                       # What read queue length does an incoming req see
system.mem_ctrls0.rdQLenPdf::26                     0                       # What read queue length does an incoming req see
system.mem_ctrls0.rdQLenPdf::27                     0                       # What read queue length does an incoming req see
system.mem_ctrls0.rdQLenPdf::28                     0                       # What read queue length does an incoming req see
system.mem_ctrls0.rdQLenPdf::29                     0                       # What read queue length does an incoming req see
system.mem_ctrls0.rdQLenPdf::30                     0                       # What read queue length does an incoming req see
system.mem_ctrls0.rdQLenPdf::31                     0                       # What read queue length does an incoming req see
system.mem_ctrls0.rdQLenPdf::32                     0                       # What read queue length does an incoming req see
system.mem_ctrls0.rdQLenPdf::33                     0                       # What read queue length does an incoming req see
system.mem_ctrls0.rdQLenPdf::34                     0                       # What read queue length does an incoming req see
system.mem_ctrls0.rdQLenPdf::35                     0                       # What read queue length does an incoming req see
system.mem_ctrls0.rdQLenPdf::36                     0                       # What read queue length does an incoming req see
system.mem_ctrls0.rdQLenPdf::37                     0                       # What read queue length does an incoming req see
system.mem_ctrls0.rdQLenPdf::38                     0                       # What read queue length does an incoming req see
system.mem_ctrls0.rdQLenPdf::39                     0                       # What read queue length does an incoming req see
system.mem_ctrls0.rdQLenPdf::40                     0                       # What read queue length does an incoming req see
system.mem_ctrls0.rdQLenPdf::41                     0                       # What read queue length does an incoming req see
system.mem_ctrls0.rdQLenPdf::42                     0                       # What read queue length does an incoming req see
system.mem_ctrls0.rdQLenPdf::43                     0                       # What read queue length does an incoming req see
system.mem_ctrls0.rdQLenPdf::44                     0                       # What read queue length does an incoming req see
system.mem_ctrls0.rdQLenPdf::45                     0                       # What read queue length does an incoming req see
system.mem_ctrls0.rdQLenPdf::46                     0                       # What read queue length does an incoming req see
system.mem_ctrls0.rdQLenPdf::47                     0                       # What read queue length does an incoming req see
system.mem_ctrls0.rdQLenPdf::48                     0                       # What read queue length does an incoming req see
system.mem_ctrls0.rdQLenPdf::49                     0                       # What read queue length does an incoming req see
system.mem_ctrls0.rdQLenPdf::50                     0                       # What read queue length does an incoming req see
system.mem_ctrls0.rdQLenPdf::51                     0                       # What read queue length does an incoming req see
system.mem_ctrls0.rdQLenPdf::52                     0                       # What read queue length does an incoming req see
system.mem_ctrls0.rdQLenPdf::53                     0                       # What read queue length does an incoming req see
system.mem_ctrls0.rdQLenPdf::54                     0                       # What read queue length does an incoming req see
system.mem_ctrls0.rdQLenPdf::55                     0                       # What read queue length does an incoming req see
system.mem_ctrls0.rdQLenPdf::56                     0                       # What read queue length does an incoming req see
system.mem_ctrls0.rdQLenPdf::57                     0                       # What read queue length does an incoming req see
system.mem_ctrls0.rdQLenPdf::58                     0                       # What read queue length does an incoming req see
system.mem_ctrls0.rdQLenPdf::59                     0                       # What read queue length does an incoming req see
system.mem_ctrls0.rdQLenPdf::60                     0                       # What read queue length does an incoming req see
system.mem_ctrls0.rdQLenPdf::61                     0                       # What read queue length does an incoming req see
system.mem_ctrls0.rdQLenPdf::62                     0                       # What read queue length does an incoming req see
system.mem_ctrls0.rdQLenPdf::63                     0                       # What read queue length does an incoming req see
system.mem_ctrls0.wrQLenPdf::0                      1                       # What write queue length does an incoming req see
system.mem_ctrls0.wrQLenPdf::1                      1                       # What write queue length does an incoming req see
system.mem_ctrls0.wrQLenPdf::2                      1                       # What write queue length does an incoming req see
system.mem_ctrls0.wrQLenPdf::3                      1                       # What write queue length does an incoming req see
system.mem_ctrls0.wrQLenPdf::4                      1                       # What write queue length does an incoming req see
system.mem_ctrls0.wrQLenPdf::5                      1                       # What write queue length does an incoming req see
system.mem_ctrls0.wrQLenPdf::6                      1                       # What write queue length does an incoming req see
system.mem_ctrls0.wrQLenPdf::7                      1                       # What write queue length does an incoming req see
system.mem_ctrls0.wrQLenPdf::8                      1                       # What write queue length does an incoming req see
system.mem_ctrls0.wrQLenPdf::9                      1                       # What write queue length does an incoming req see
system.mem_ctrls0.wrQLenPdf::10                     1                       # What write queue length does an incoming req see
system.mem_ctrls0.wrQLenPdf::11                     1                       # What write queue length does an incoming req see
system.mem_ctrls0.wrQLenPdf::12                     1                       # What write queue length does an incoming req see
system.mem_ctrls0.wrQLenPdf::13                     1                       # What write queue length does an incoming req see
system.mem_ctrls0.wrQLenPdf::14                     1                       # What write queue length does an incoming req see
system.mem_ctrls0.wrQLenPdf::15                     1                       # What write queue length does an incoming req see
system.mem_ctrls0.wrQLenPdf::16                     1                       # What write queue length does an incoming req see
system.mem_ctrls0.wrQLenPdf::17                     1                       # What write queue length does an incoming req see
system.mem_ctrls0.wrQLenPdf::18                     1                       # What write queue length does an incoming req see
system.mem_ctrls0.wrQLenPdf::19                     1                       # What write queue length does an incoming req see
system.mem_ctrls0.wrQLenPdf::20                     1                       # What write queue length does an incoming req see
system.mem_ctrls0.wrQLenPdf::21                     1                       # What write queue length does an incoming req see
system.mem_ctrls0.wrQLenPdf::22                     1                       # What write queue length does an incoming req see
system.mem_ctrls0.wrQLenPdf::23                     1                       # What write queue length does an incoming req see
system.mem_ctrls0.wrQLenPdf::24                     1                       # What write queue length does an incoming req see
system.mem_ctrls0.wrQLenPdf::25                     1                       # What write queue length does an incoming req see
system.mem_ctrls0.wrQLenPdf::26                     1                       # What write queue length does an incoming req see
system.mem_ctrls0.wrQLenPdf::27                     1                       # What write queue length does an incoming req see
system.mem_ctrls0.wrQLenPdf::28                     1                       # What write queue length does an incoming req see
system.mem_ctrls0.wrQLenPdf::29                     1                       # What write queue length does an incoming req see
system.mem_ctrls0.wrQLenPdf::30                     1                       # What write queue length does an incoming req see
system.mem_ctrls0.wrQLenPdf::31                     1                       # What write queue length does an incoming req see
system.mem_ctrls0.wrQLenPdf::32                     1                       # What write queue length does an incoming req see
system.mem_ctrls0.wrQLenPdf::33                     1                       # What write queue length does an incoming req see
system.mem_ctrls0.wrQLenPdf::34                     1                       # What write queue length does an incoming req see
system.mem_ctrls0.wrQLenPdf::35                     1                       # What write queue length does an incoming req see
system.mem_ctrls0.wrQLenPdf::36                     1                       # What write queue length does an incoming req see
system.mem_ctrls0.wrQLenPdf::37                     1                       # What write queue length does an incoming req see
system.mem_ctrls0.wrQLenPdf::38                     1                       # What write queue length does an incoming req see
system.mem_ctrls0.wrQLenPdf::39                     1                       # What write queue length does an incoming req see
system.mem_ctrls0.wrQLenPdf::40                     1                       # What write queue length does an incoming req see
system.mem_ctrls0.wrQLenPdf::41                     1                       # What write queue length does an incoming req see
system.mem_ctrls0.wrQLenPdf::42                     1                       # What write queue length does an incoming req see
system.mem_ctrls0.wrQLenPdf::43                     1                       # What write queue length does an incoming req see
system.mem_ctrls0.wrQLenPdf::44                     1                       # What write queue length does an incoming req see
system.mem_ctrls0.wrQLenPdf::45                     1                       # What write queue length does an incoming req see
system.mem_ctrls0.wrQLenPdf::46                     1                       # What write queue length does an incoming req see
system.mem_ctrls0.wrQLenPdf::47                    53                       # What write queue length does an incoming req see
system.mem_ctrls0.wrQLenPdf::48                    53                       # What write queue length does an incoming req see
system.mem_ctrls0.wrQLenPdf::49                    62                       # What write queue length does an incoming req see
system.mem_ctrls0.wrQLenPdf::50                    66                       # What write queue length does an incoming req see
system.mem_ctrls0.wrQLenPdf::51                    65                       # What write queue length does an incoming req see
system.mem_ctrls0.wrQLenPdf::52                    68                       # What write queue length does an incoming req see
system.mem_ctrls0.wrQLenPdf::53                    69                       # What write queue length does an incoming req see
system.mem_ctrls0.wrQLenPdf::54                    72                       # What write queue length does an incoming req see
system.mem_ctrls0.wrQLenPdf::55                    70                       # What write queue length does an incoming req see
system.mem_ctrls0.wrQLenPdf::56                    69                       # What write queue length does an incoming req see
system.mem_ctrls0.wrQLenPdf::57                    69                       # What write queue length does an incoming req see
system.mem_ctrls0.wrQLenPdf::58                    69                       # What write queue length does an incoming req see
system.mem_ctrls0.wrQLenPdf::59                    68                       # What write queue length does an incoming req see
system.mem_ctrls0.wrQLenPdf::60                    72                       # What write queue length does an incoming req see
system.mem_ctrls0.wrQLenPdf::61                    72                       # What write queue length does an incoming req see
system.mem_ctrls0.wrQLenPdf::62                    68                       # What write queue length does an incoming req see
system.mem_ctrls0.wrQLenPdf::63                    69                       # What write queue length does an incoming req see
system.mem_ctrls0.wrQLenPdf::64                    68                       # What write queue length does an incoming req see
system.mem_ctrls0.wrQLenPdf::65                     0                       # What write queue length does an incoming req see
system.mem_ctrls0.wrQLenPdf::66                     0                       # What write queue length does an incoming req see
system.mem_ctrls0.wrQLenPdf::67                     0                       # What write queue length does an incoming req see
system.mem_ctrls0.wrQLenPdf::68                     0                       # What write queue length does an incoming req see
system.mem_ctrls0.wrQLenPdf::69                     0                       # What write queue length does an incoming req see
system.mem_ctrls0.wrQLenPdf::70                     0                       # What write queue length does an incoming req see
system.mem_ctrls0.wrQLenPdf::71                     0                       # What write queue length does an incoming req see
system.mem_ctrls0.wrQLenPdf::72                     0                       # What write queue length does an incoming req see
system.mem_ctrls0.wrQLenPdf::73                     0                       # What write queue length does an incoming req see
system.mem_ctrls0.wrQLenPdf::74                     0                       # What write queue length does an incoming req see
system.mem_ctrls0.wrQLenPdf::75                     0                       # What write queue length does an incoming req see
system.mem_ctrls0.wrQLenPdf::76                     0                       # What write queue length does an incoming req see
system.mem_ctrls0.wrQLenPdf::77                     0                       # What write queue length does an incoming req see
system.mem_ctrls0.wrQLenPdf::78                     0                       # What write queue length does an incoming req see
system.mem_ctrls0.wrQLenPdf::79                     0                       # What write queue length does an incoming req see
system.mem_ctrls0.wrQLenPdf::80                     0                       # What write queue length does an incoming req see
system.mem_ctrls0.wrQLenPdf::81                     0                       # What write queue length does an incoming req see
system.mem_ctrls0.wrQLenPdf::82                     0                       # What write queue length does an incoming req see
system.mem_ctrls0.wrQLenPdf::83                     0                       # What write queue length does an incoming req see
system.mem_ctrls0.wrQLenPdf::84                     0                       # What write queue length does an incoming req see
system.mem_ctrls0.wrQLenPdf::85                     0                       # What write queue length does an incoming req see
system.mem_ctrls0.wrQLenPdf::86                     0                       # What write queue length does an incoming req see
system.mem_ctrls0.wrQLenPdf::87                     0                       # What write queue length does an incoming req see
system.mem_ctrls0.wrQLenPdf::88                     0                       # What write queue length does an incoming req see
system.mem_ctrls0.wrQLenPdf::89                     0                       # What write queue length does an incoming req see
system.mem_ctrls0.wrQLenPdf::90                     0                       # What write queue length does an incoming req see
system.mem_ctrls0.wrQLenPdf::91                     0                       # What write queue length does an incoming req see
system.mem_ctrls0.wrQLenPdf::92                     0                       # What write queue length does an incoming req see
system.mem_ctrls0.wrQLenPdf::93                     0                       # What write queue length does an incoming req see
system.mem_ctrls0.wrQLenPdf::94                     0                       # What write queue length does an incoming req see
system.mem_ctrls0.wrQLenPdf::95                     0                       # What write queue length does an incoming req see
system.mem_ctrls0.wrQLenPdf::96                     0                       # What write queue length does an incoming req see
system.mem_ctrls0.wrQLenPdf::97                     0                       # What write queue length does an incoming req see
system.mem_ctrls0.wrQLenPdf::98                     0                       # What write queue length does an incoming req see
system.mem_ctrls0.wrQLenPdf::99                     0                       # What write queue length does an incoming req see
system.mem_ctrls0.wrQLenPdf::100                    0                       # What write queue length does an incoming req see
system.mem_ctrls0.wrQLenPdf::101                    0                       # What write queue length does an incoming req see
system.mem_ctrls0.wrQLenPdf::102                    0                       # What write queue length does an incoming req see
system.mem_ctrls0.wrQLenPdf::103                    0                       # What write queue length does an incoming req see
system.mem_ctrls0.wrQLenPdf::104                    0                       # What write queue length does an incoming req see
system.mem_ctrls0.wrQLenPdf::105                    0                       # What write queue length does an incoming req see
system.mem_ctrls0.wrQLenPdf::106                    0                       # What write queue length does an incoming req see
system.mem_ctrls0.wrQLenPdf::107                    0                       # What write queue length does an incoming req see
system.mem_ctrls0.wrQLenPdf::108                    0                       # What write queue length does an incoming req see
system.mem_ctrls0.wrQLenPdf::109                    0                       # What write queue length does an incoming req see
system.mem_ctrls0.wrQLenPdf::110                    0                       # What write queue length does an incoming req see
system.mem_ctrls0.wrQLenPdf::111                    0                       # What write queue length does an incoming req see
system.mem_ctrls0.wrQLenPdf::112                    0                       # What write queue length does an incoming req see
system.mem_ctrls0.wrQLenPdf::113                    0                       # What write queue length does an incoming req see
system.mem_ctrls0.wrQLenPdf::114                    0                       # What write queue length does an incoming req see
system.mem_ctrls0.wrQLenPdf::115                    0                       # What write queue length does an incoming req see
system.mem_ctrls0.wrQLenPdf::116                    0                       # What write queue length does an incoming req see
system.mem_ctrls0.wrQLenPdf::117                    0                       # What write queue length does an incoming req see
system.mem_ctrls0.wrQLenPdf::118                    0                       # What write queue length does an incoming req see
system.mem_ctrls0.wrQLenPdf::119                    0                       # What write queue length does an incoming req see
system.mem_ctrls0.wrQLenPdf::120                    0                       # What write queue length does an incoming req see
system.mem_ctrls0.wrQLenPdf::121                    0                       # What write queue length does an incoming req see
system.mem_ctrls0.wrQLenPdf::122                    0                       # What write queue length does an incoming req see
system.mem_ctrls0.wrQLenPdf::123                    0                       # What write queue length does an incoming req see
system.mem_ctrls0.wrQLenPdf::124                    0                       # What write queue length does an incoming req see
system.mem_ctrls0.wrQLenPdf::125                    0                       # What write queue length does an incoming req see
system.mem_ctrls0.wrQLenPdf::126                    0                       # What write queue length does an incoming req see
system.mem_ctrls0.wrQLenPdf::127                    0                       # What write queue length does an incoming req see
system.mem_ctrls0.bytesPerActivate::samples         1807                       # Bytes accessed per row activation
system.mem_ctrls0.bytesPerActivate::mean    89.996680                       # Bytes accessed per row activation
system.mem_ctrls0.bytesPerActivate::gmean    79.017273                       # Bytes accessed per row activation
system.mem_ctrls0.bytesPerActivate::stdev    65.538117                       # Bytes accessed per row activation
system.mem_ctrls0.bytesPerActivate::64-127         1409     77.97%     77.97% # Bytes accessed per row activation
system.mem_ctrls0.bytesPerActivate::128-191          242     13.39%     91.37% # Bytes accessed per row activation
system.mem_ctrls0.bytesPerActivate::192-255           76      4.21%     95.57% # Bytes accessed per row activation
system.mem_ctrls0.bytesPerActivate::256-319           34      1.88%     97.45% # Bytes accessed per row activation
system.mem_ctrls0.bytesPerActivate::320-383           22      1.22%     98.67% # Bytes accessed per row activation
system.mem_ctrls0.bytesPerActivate::384-447           10      0.55%     99.23% # Bytes accessed per row activation
system.mem_ctrls0.bytesPerActivate::448-511            7      0.39%     99.61% # Bytes accessed per row activation
system.mem_ctrls0.bytesPerActivate::512-575            1      0.06%     99.67% # Bytes accessed per row activation
system.mem_ctrls0.bytesPerActivate::576-639            4      0.22%     99.89% # Bytes accessed per row activation
system.mem_ctrls0.bytesPerActivate::640-703            1      0.06%     99.94% # Bytes accessed per row activation
system.mem_ctrls0.bytesPerActivate::704-767            1      0.06%    100.00% # Bytes accessed per row activation
system.mem_ctrls0.bytesPerActivate::total         1807                       # Bytes accessed per row activation
system.mem_ctrls0.rdPerTurnAround::samples           68                       # Reads before turning the bus around for writes
system.mem_ctrls0.rdPerTurnAround::mean     19.720588                       # Reads before turning the bus around for writes
system.mem_ctrls0.rdPerTurnAround::gmean    18.818111                       # Reads before turning the bus around for writes
system.mem_ctrls0.rdPerTurnAround::stdev     7.722511                       # Reads before turning the bus around for writes
system.mem_ctrls0.rdPerTurnAround::10-11            2      2.94%      2.94% # Reads before turning the bus around for writes
system.mem_ctrls0.rdPerTurnAround::12-13            4      5.88%      8.82% # Reads before turning the bus around for writes
system.mem_ctrls0.rdPerTurnAround::14-15            7     10.29%     19.12% # Reads before turning the bus around for writes
system.mem_ctrls0.rdPerTurnAround::16-17           17     25.00%     44.12% # Reads before turning the bus around for writes
system.mem_ctrls0.rdPerTurnAround::18-19           12     17.65%     61.76% # Reads before turning the bus around for writes
system.mem_ctrls0.rdPerTurnAround::20-21            5      7.35%     69.12% # Reads before turning the bus around for writes
system.mem_ctrls0.rdPerTurnAround::22-23            9     13.24%     82.35% # Reads before turning the bus around for writes
system.mem_ctrls0.rdPerTurnAround::24-25            5      7.35%     89.71% # Reads before turning the bus around for writes
system.mem_ctrls0.rdPerTurnAround::26-27            4      5.88%     95.59% # Reads before turning the bus around for writes
system.mem_ctrls0.rdPerTurnAround::30-31            1      1.47%     97.06% # Reads before turning the bus around for writes
system.mem_ctrls0.rdPerTurnAround::32-33            1      1.47%     98.53% # Reads before turning the bus around for writes
system.mem_ctrls0.rdPerTurnAround::70-71            1      1.47%    100.00% # Reads before turning the bus around for writes
system.mem_ctrls0.rdPerTurnAround::total           68                       # Reads before turning the bus around for writes
system.mem_ctrls0.wrPerTurnAround::samples           68                       # Writes before turning the bus around for reads
system.mem_ctrls0.wrPerTurnAround::mean     17.632353                       # Writes before turning the bus around for reads
system.mem_ctrls0.wrPerTurnAround::gmean    17.604284                       # Writes before turning the bus around for reads
system.mem_ctrls0.wrPerTurnAround::stdev     0.991071                       # Writes before turning the bus around for reads
system.mem_ctrls0.wrPerTurnAround::16              16     23.53%     23.53% # Writes before turning the bus around for reads
system.mem_ctrls0.wrPerTurnAround::18              47     69.12%     92.65% # Writes before turning the bus around for reads
system.mem_ctrls0.wrPerTurnAround::19               3      4.41%     97.06% # Writes before turning the bus around for reads
system.mem_ctrls0.wrPerTurnAround::20               2      2.94%    100.00% # Writes before turning the bus around for reads
system.mem_ctrls0.wrPerTurnAround::total           68                       # Writes before turning the bus around for reads
system.mem_ctrls0.masterReadBytes::.switch_cpus_10.inst        12416                       # Per-master bytes read from memory
system.mem_ctrls0.masterReadBytes::.switch_cpus_10.data         7744                       # Per-master bytes read from memory
system.mem_ctrls0.masterReadBytes::.switch_cpus_11.inst        14656                       # Per-master bytes read from memory
system.mem_ctrls0.masterReadBytes::.switch_cpus_11.data         8064                       # Per-master bytes read from memory
system.mem_ctrls0.masterReadBytes::.switch_cpus_12.inst        13056                       # Per-master bytes read from memory
system.mem_ctrls0.masterReadBytes::.switch_cpus_12.data         7360                       # Per-master bytes read from memory
system.mem_ctrls0.masterReadBytes::.switch_cpus_13.inst        14848                       # Per-master bytes read from memory
system.mem_ctrls0.masterReadBytes::.switch_cpus_13.data         7744                       # Per-master bytes read from memory
system.mem_ctrls0.masterWriteBytes::.writebacks        76736                       # Per-master bytes write to memory
system.mem_ctrls0.masterReadRate::.switch_cpus_10.inst 98062.845338871601                       # Per-master bytes read from memory rate (Bytes/sec)
system.mem_ctrls0.masterReadRate::.switch_cpus_10.data 61162.908690739510                       # Per-master bytes read from memory rate (Bytes/sec)
system.mem_ctrls0.masterReadRate::.switch_cpus_11.inst 115754.595786606180                       # Per-master bytes read from memory rate (Bytes/sec)
system.mem_ctrls0.masterReadRate::.switch_cpus_11.data 63690.301611844443                       # Per-master bytes read from memory rate (Bytes/sec)
system.mem_ctrls0.masterReadRate::.switch_cpus_12.inst 103117.631181081480                       # Per-master bytes read from memory rate (Bytes/sec)
system.mem_ctrls0.masterReadRate::.switch_cpus_12.data 58130.037185413581                       # Per-master bytes read from memory rate (Bytes/sec)
system.mem_ctrls0.masterReadRate::.switch_cpus_13.inst 117271.031539269141                       # Per-master bytes read from memory rate (Bytes/sec)
system.mem_ctrls0.masterReadRate::.switch_cpus_13.data 61162.908690739510                       # Per-master bytes read from memory rate (Bytes/sec)
system.mem_ctrls0.masterWriteRate::.writebacks 606068.822480964242                       # Per-master bytes write to memory rate (Bytes/sec)
system.mem_ctrls0.masterReadAccesses::.switch_cpus_10.inst          194                       # Per-master read serviced memory accesses
system.mem_ctrls0.masterReadAccesses::.switch_cpus_10.data          121                       # Per-master read serviced memory accesses
system.mem_ctrls0.masterReadAccesses::.switch_cpus_11.inst          229                       # Per-master read serviced memory accesses
system.mem_ctrls0.masterReadAccesses::.switch_cpus_11.data          126                       # Per-master read serviced memory accesses
system.mem_ctrls0.masterReadAccesses::.switch_cpus_12.inst          204                       # Per-master read serviced memory accesses
system.mem_ctrls0.masterReadAccesses::.switch_cpus_12.data          115                       # Per-master read serviced memory accesses
system.mem_ctrls0.masterReadAccesses::.switch_cpus_13.inst          232                       # Per-master read serviced memory accesses
system.mem_ctrls0.masterReadAccesses::.switch_cpus_13.data          121                       # Per-master read serviced memory accesses
system.mem_ctrls0.masterWriteAccesses::.writebacks         1249                       # Per-master write serviced memory accesses
system.mem_ctrls0.masterReadTotalLat::.switch_cpus_10.inst     27712150                       # Per-master read total memory access latency
system.mem_ctrls0.masterReadTotalLat::.switch_cpus_10.data     15136760                       # Per-master read total memory access latency
system.mem_ctrls0.masterReadTotalLat::.switch_cpus_11.inst     35840279                       # Per-master read total memory access latency
system.mem_ctrls0.masterReadTotalLat::.switch_cpus_11.data     17473330                       # Per-master read total memory access latency
system.mem_ctrls0.masterReadTotalLat::.switch_cpus_12.inst     31645229                       # Per-master read total memory access latency
system.mem_ctrls0.masterReadTotalLat::.switch_cpus_12.data     15103610                       # Per-master read total memory access latency
system.mem_ctrls0.masterReadTotalLat::.switch_cpus_13.inst     29790970                       # Per-master read total memory access latency
system.mem_ctrls0.masterReadTotalLat::.switch_cpus_13.data     18515890                       # Per-master read total memory access latency
system.mem_ctrls0.masterWriteTotalLat::.writebacks 4879451968351                       # Per-master write total memory access latency
system.mem_ctrls0.masterReadAvgLat::.switch_cpus_10.inst    142846.13                       # Per-master read average memory access latency
system.mem_ctrls0.masterReadAvgLat::.switch_cpus_10.data    125097.19                       # Per-master read average memory access latency
system.mem_ctrls0.masterReadAvgLat::.switch_cpus_11.inst    156507.77                       # Per-master read average memory access latency
system.mem_ctrls0.masterReadAvgLat::.switch_cpus_11.data    138677.22                       # Per-master read average memory access latency
system.mem_ctrls0.masterReadAvgLat::.switch_cpus_12.inst    155123.67                       # Per-master read average memory access latency
system.mem_ctrls0.masterReadAvgLat::.switch_cpus_12.data    131335.74                       # Per-master read average memory access latency
system.mem_ctrls0.masterReadAvgLat::.switch_cpus_13.inst    128409.35                       # Per-master read average memory access latency
system.mem_ctrls0.masterReadAvgLat::.switch_cpus_13.data    153023.88                       # Per-master read average memory access latency
system.mem_ctrls0.masterWriteAvgLat::.writebacks 3906686924.22                       # Per-master write average memory access latency
system.mem_ctrls0.totQLat                   167250098                       # Total ticks spent queuing
system.mem_ctrls0.totMemAccLat              191218218                       # Total ticks spent from burst creation until serviced by the DRAM
system.mem_ctrls0.totBusLat                   5045920                       # Total ticks spent in databus transfers
system.mem_ctrls0.avgQLat                   124627.49                       # Average queueing delay per DRAM burst
system.mem_ctrls0.avgBusLat                   3760.00                       # Average bus latency per DRAM burst
system.mem_ctrls0.avgMemAccLat              142487.49                       # Average memory access latency per DRAM burst
system.mem_ctrls0.avgRdBW                        0.68                       # Average DRAM read bandwidth in MiByte/s
system.mem_ctrls0.avgWrBW                        0.61                       # Average achieved write bandwidth in MiByte/s
system.mem_ctrls0.avgRdBWSys                     0.68                       # Average system read bandwidth in MiByte/s
system.mem_ctrls0.avgWrBWSys                     0.63                       # Average system write bandwidth in MiByte/s
system.mem_ctrls0.peakBW                     17021.00                       # Theoretical peak bandwidth in MiByte/s
system.mem_ctrls0.busUtil                        0.01                       # Data bus utilization in percentage
system.mem_ctrls0.busUtilRead                    0.00                       # Data bus utilization in percentage for reads
system.mem_ctrls0.busUtilWrite                   0.00                       # Data bus utilization in percentage for writes
system.mem_ctrls0.avgRdQLen                      1.02                       # Average read queue length when enqueuing
system.mem_ctrls0.avgWrQLen                     55.94                       # Average write queue length when enqueuing
system.mem_ctrls0.readRowHits                     441                       # Number of row buffer hits during reads
system.mem_ctrls0.writeRowHits                    293                       # Number of row buffer hits during writes
system.mem_ctrls0.readRowHitRate                32.86                       # Row buffer hit rate for reads
system.mem_ctrls0.writeRowHitRate               23.46                       # Row buffer hit rate for writes
system.mem_ctrls0.avgGap                  48474202.24                       # Average gap between requests
system.mem_ctrls0.pageHitRate                   28.33                       # Row buffer hit rate, read and write combined
system.mem_ctrls0_0.actEnergy                       0                       # Energy for activate commands per rank (pJ)
system.mem_ctrls0_0.preEnergy            2459761.920000                       # Energy for precharge commands per rank (pJ)
system.mem_ctrls0_0.readEnergy           1828848.960000                       # Energy for read commands per rank (pJ)
system.mem_ctrls0_0.writeEnergy               2131920                       # Energy for write commands per rank (pJ)
system.mem_ctrls0_0.refreshEnergy        160414910.400001                       # Energy for refresh commands per rank (pJ)
system.mem_ctrls0_0.actBackEnergy        128389670.640000                       # Energy for active background per rank (pJ)
system.mem_ctrls0_0.preBackEnergy        18452762.496000                       # Energy for precharge background per rank (pJ)
system.mem_ctrls0_0.actPowerDownEnergy   499950896.640000                       # Energy for active power-down per rank (pJ)
system.mem_ctrls0_0.prePowerDownEnergy   270156225.600000                       # Energy for precharge power-down per rank (pJ)
system.mem_ctrls0_0.selfRefreshEnergy    35742013826.160011                       # Energy for self refresh per rank (pJ)
system.mem_ctrls0_0.totalEnergy          36825798822.816048                       # Total energy per rank (pJ)
system.mem_ctrls0_0.averagePower           290.853948                       # Core power per rank (mW)
system.mem_ctrls0_0.totalIdleTime        125348423379                       # Total Idle time Per DRAM Rank
system.mem_ctrls0_0.memoryStateTime::IDLE     38102080                       # Time in different power states
system.mem_ctrls0_0.memoryStateTime::REF     88400000                       # Time in different power states
system.mem_ctrls0_0.memoryStateTime::SREF 123920959590                       # Time in different power states
system.mem_ctrls0_0.memoryStateTime::PRE_PDN   1125654020                       # Time in different power states
system.mem_ctrls0_0.memoryStateTime::ACT    137606581                       # Time in different power states
system.mem_ctrls0_0.memoryStateTime::ACT_PDN   1301963479                       # Time in different power states
system.mem_ctrls0_1.actEnergy                       0                       # Energy for activate commands per rank (pJ)
system.mem_ctrls0_1.preEnergy            2248701.840000                       # Energy for precharge commands per rank (pJ)
system.mem_ctrls0_1.readEnergy           1743662.400000                       # Energy for read commands per rank (pJ)
system.mem_ctrls0_1.writeEnergy               1925496                       # Energy for write commands per rank (pJ)
system.mem_ctrls0_1.refreshEnergy        158055867.600001                       # Energy for refresh commands per rank (pJ)
system.mem_ctrls0_1.actBackEnergy        135384342.240000                       # Energy for active background per rank (pJ)
system.mem_ctrls0_1.preBackEnergy        18571392.000000                       # Energy for precharge background per rank (pJ)
system.mem_ctrls0_1.actPowerDownEnergy   475405255.680000                       # Energy for active power-down per rank (pJ)
system.mem_ctrls0_1.prePowerDownEnergy   273372830.400000                       # Energy for precharge power-down per rank (pJ)
system.mem_ctrls0_1.selfRefreshEnergy    35754242891.520004                       # Energy for self refresh per rank (pJ)
system.mem_ctrls0_1.totalEnergy          36821090988.480049                       # Total energy per rank (pJ)
system.mem_ctrls0_1.averagePower           290.816765                       # Core power per rank (mW)
system.mem_ctrls0_1.totalIdleTime        123098952450                       # Total Idle time Per DRAM Rank
system.mem_ctrls0_1.memoryStateTime::IDLE     38862920                       # Time in different power states
system.mem_ctrls0_1.memoryStateTime::REF     87100000                       # Time in different power states
system.mem_ctrls0_1.memoryStateTime::SREF 123959054370                       # Time in different power states
system.mem_ctrls0_1.memoryStateTime::PRE_PDN   1139051410                       # Time in different power states
system.mem_ctrls0_1.memoryStateTime::ACT    150577920                       # Time in different power states
system.mem_ctrls0_1.memoryStateTime::ACT_PDN   1238039130                       # Time in different power states
system.mem_ctrls1.pwrStateResidencyTicks::UNDEFINED 183846612250                       # Cumulative time (in ticks) in various power states
system.mem_ctrls1.bytes_read::.switch_cpus_10.inst        14400                       # Number of bytes read from this memory
system.mem_ctrls1.bytes_read::.switch_cpus_10.data         7104                       # Number of bytes read from this memory
system.mem_ctrls1.bytes_read::.switch_cpus_11.inst        13056                       # Number of bytes read from this memory
system.mem_ctrls1.bytes_read::.switch_cpus_11.data         7232                       # Number of bytes read from this memory
system.mem_ctrls1.bytes_read::.switch_cpus_12.inst        14720                       # Number of bytes read from this memory
system.mem_ctrls1.bytes_read::.switch_cpus_12.data         7744                       # Number of bytes read from this memory
system.mem_ctrls1.bytes_read::.switch_cpus_13.inst        12416                       # Number of bytes read from this memory
system.mem_ctrls1.bytes_read::.switch_cpus_13.data         7232                       # Number of bytes read from this memory
system.mem_ctrls1.bytes_read::total             83904                       # Number of bytes read from this memory
system.mem_ctrls1.bytes_inst_read::.switch_cpus_10.inst        14400                       # Number of instructions bytes read from this memory
system.mem_ctrls1.bytes_inst_read::.switch_cpus_11.inst        13056                       # Number of instructions bytes read from this memory
system.mem_ctrls1.bytes_inst_read::.switch_cpus_12.inst        14720                       # Number of instructions bytes read from this memory
system.mem_ctrls1.bytes_inst_read::.switch_cpus_13.inst        12416                       # Number of instructions bytes read from this memory
system.mem_ctrls1.bytes_inst_read::total        54592                       # Number of instructions bytes read from this memory
system.mem_ctrls1.bytes_written::.writebacks        79488                       # Number of bytes written to this memory
system.mem_ctrls1.bytes_written::total          79488                       # Number of bytes written to this memory
system.mem_ctrls1.num_reads::.switch_cpus_10.inst          225                       # Number of read requests responded to by this memory
system.mem_ctrls1.num_reads::.switch_cpus_10.data          111                       # Number of read requests responded to by this memory
system.mem_ctrls1.num_reads::.switch_cpus_11.inst          204                       # Number of read requests responded to by this memory
system.mem_ctrls1.num_reads::.switch_cpus_11.data          113                       # Number of read requests responded to by this memory
system.mem_ctrls1.num_reads::.switch_cpus_12.inst          230                       # Number of read requests responded to by this memory
system.mem_ctrls1.num_reads::.switch_cpus_12.data          121                       # Number of read requests responded to by this memory
system.mem_ctrls1.num_reads::.switch_cpus_13.inst          194                       # Number of read requests responded to by this memory
system.mem_ctrls1.num_reads::.switch_cpus_13.data          113                       # Number of read requests responded to by this memory
system.mem_ctrls1.num_reads::total               1311                       # Number of read requests responded to by this memory
system.mem_ctrls1.num_writes::.writebacks         1242                       # Number of write requests responded to by this memory
system.mem_ctrls1.num_writes::total              1242                       # Number of write requests responded to by this memory
system.mem_ctrls1.bw_read::.switch_cpus_10.inst       113733                       # Total read bandwidth from this memory (bytes/s)
system.mem_ctrls1.bw_read::.switch_cpus_10.data        56108                       # Total read bandwidth from this memory (bytes/s)
system.mem_ctrls1.bw_read::.switch_cpus_11.inst       103118                       # Total read bandwidth from this memory (bytes/s)
system.mem_ctrls1.bw_read::.switch_cpus_11.data        57119                       # Total read bandwidth from this memory (bytes/s)
system.mem_ctrls1.bw_read::.switch_cpus_12.inst       116260                       # Total read bandwidth from this memory (bytes/s)
system.mem_ctrls1.bw_read::.switch_cpus_12.data        61163                       # Total read bandwidth from this memory (bytes/s)
system.mem_ctrls1.bw_read::.switch_cpus_13.inst        98063                       # Total read bandwidth from this memory (bytes/s)
system.mem_ctrls1.bw_read::.switch_cpus_13.data        57119                       # Total read bandwidth from this memory (bytes/s)
system.mem_ctrls1.bw_read::total               662682                       # Total read bandwidth from this memory (bytes/s)
system.mem_ctrls1.bw_inst_read::.switch_cpus_10.inst       113733                       # Instruction read bandwidth from this memory (bytes/s)
system.mem_ctrls1.bw_inst_read::.switch_cpus_11.inst       103118                       # Instruction read bandwidth from this memory (bytes/s)
system.mem_ctrls1.bw_inst_read::.switch_cpus_12.inst       116260                       # Instruction read bandwidth from this memory (bytes/s)
system.mem_ctrls1.bw_inst_read::.switch_cpus_13.inst        98063                       # Instruction read bandwidth from this memory (bytes/s)
system.mem_ctrls1.bw_inst_read::total          431173                       # Instruction read bandwidth from this memory (bytes/s)
system.mem_ctrls1.bw_write::.writebacks        627804                       # Write bandwidth from this memory (bytes/s)
system.mem_ctrls1.bw_write::total              627804                       # Write bandwidth from this memory (bytes/s)
system.mem_ctrls1.bw_total::.writebacks        627804                       # Total bandwidth to/from this memory (bytes/s)
system.mem_ctrls1.bw_total::.switch_cpus_10.inst       113733                       # Total bandwidth to/from this memory (bytes/s)
system.mem_ctrls1.bw_total::.switch_cpus_10.data        56108                       # Total bandwidth to/from this memory (bytes/s)
system.mem_ctrls1.bw_total::.switch_cpus_11.inst       103118                       # Total bandwidth to/from this memory (bytes/s)
system.mem_ctrls1.bw_total::.switch_cpus_11.data        57119                       # Total bandwidth to/from this memory (bytes/s)
system.mem_ctrls1.bw_total::.switch_cpus_12.inst       116260                       # Total bandwidth to/from this memory (bytes/s)
system.mem_ctrls1.bw_total::.switch_cpus_12.data        61163                       # Total bandwidth to/from this memory (bytes/s)
system.mem_ctrls1.bw_total::.switch_cpus_13.inst        98063                       # Total bandwidth to/from this memory (bytes/s)
system.mem_ctrls1.bw_total::.switch_cpus_13.data        57119                       # Total bandwidth to/from this memory (bytes/s)
system.mem_ctrls1.bw_total::total             1290487                       # Total bandwidth to/from this memory (bytes/s)
system.mem_ctrls1.avgPriority_.writebacks::samples      1242.00                       # Average QoS priority value for accepted requests
system.mem_ctrls1.avgPriority_.switch_cpus_10.inst::samples       225.00                       # Average QoS priority value for accepted requests
system.mem_ctrls1.avgPriority_.switch_cpus_10.data::samples       111.00                       # Average QoS priority value for accepted requests
system.mem_ctrls1.avgPriority_.switch_cpus_11.inst::samples       204.00                       # Average QoS priority value for accepted requests
system.mem_ctrls1.avgPriority_.switch_cpus_11.data::samples       113.00                       # Average QoS priority value for accepted requests
system.mem_ctrls1.avgPriority_.switch_cpus_12.inst::samples       230.00                       # Average QoS priority value for accepted requests
system.mem_ctrls1.avgPriority_.switch_cpus_12.data::samples       121.00                       # Average QoS priority value for accepted requests
system.mem_ctrls1.avgPriority_.switch_cpus_13.inst::samples       194.00                       # Average QoS priority value for accepted requests
system.mem_ctrls1.avgPriority_.switch_cpus_13.data::samples       113.00                       # Average QoS priority value for accepted requests
system.mem_ctrls1.priorityMinLatency     0.000000017860                       # per QoS priority minimum request to response latency (s)
system.mem_ctrls1.priorityMaxLatency     0.131968808540                       # per QoS priority maximum request to response latency (s)
system.mem_ctrls1.numReadWriteTurnArounds           66                       # Number of turnarounds from READ to WRITE
system.mem_ctrls1.numWriteReadTurnArounds           66                       # Number of turnarounds from WRITE to READ
system.mem_ctrls1.numStayReadState               4343                       # Number of times bus staying in READ state
system.mem_ctrls1.numStayWriteState              1118                       # Number of times bus staying in WRITE state
system.mem_ctrls1.readReqs                       1311                       # Number of read requests accepted
system.mem_ctrls1.writeReqs                      1242                       # Number of write requests accepted
system.mem_ctrls1.readBursts                     1311                       # Number of DRAM read bursts, including those serviced by the write queue
system.mem_ctrls1.writeBursts                    1242                       # Number of DRAM write bursts, including those merged in the write queue
system.mem_ctrls1.bytesReadDRAM                 83904                       # Total number of bytes read from DRAM
system.mem_ctrls1.bytesReadWrQ                      0                       # Total number of bytes read from write queue
system.mem_ctrls1.bytesWritten                  75520                       # Total number of bytes written to DRAM
system.mem_ctrls1.bytesReadSys                  83904                       # Total read bytes from the system interface side
system.mem_ctrls1.bytesWrittenSys               79488                       # Total written bytes from the system interface side
system.mem_ctrls1.servicedByWrQ                     0                       # Number of DRAM read bursts serviced by the write queue
system.mem_ctrls1.mergedWrBursts                    0                       # Number of DRAM write bursts merged with an existing one
system.mem_ctrls1.neitherReadNorWriteReqs            0                       # Number of requests that are neither read nor write
system.mem_ctrls1.perBankRdBursts::0               49                       # Per bank write bursts
system.mem_ctrls1.perBankRdBursts::1               35                       # Per bank write bursts
system.mem_ctrls1.perBankRdBursts::2               57                       # Per bank write bursts
system.mem_ctrls1.perBankRdBursts::3               74                       # Per bank write bursts
system.mem_ctrls1.perBankRdBursts::4               57                       # Per bank write bursts
system.mem_ctrls1.perBankRdBursts::5               39                       # Per bank write bursts
system.mem_ctrls1.perBankRdBursts::6               31                       # Per bank write bursts
system.mem_ctrls1.perBankRdBursts::7               38                       # Per bank write bursts
system.mem_ctrls1.perBankRdBursts::8               16                       # Per bank write bursts
system.mem_ctrls1.perBankRdBursts::9               12                       # Per bank write bursts
system.mem_ctrls1.perBankRdBursts::10              26                       # Per bank write bursts
system.mem_ctrls1.perBankRdBursts::11              50                       # Per bank write bursts
system.mem_ctrls1.perBankRdBursts::12              97                       # Per bank write bursts
system.mem_ctrls1.perBankRdBursts::13              47                       # Per bank write bursts
system.mem_ctrls1.perBankRdBursts::14              30                       # Per bank write bursts
system.mem_ctrls1.perBankRdBursts::15              22                       # Per bank write bursts
system.mem_ctrls1.perBankRdBursts::16              46                       # Per bank write bursts
system.mem_ctrls1.perBankRdBursts::17              37                       # Per bank write bursts
system.mem_ctrls1.perBankRdBursts::18              23                       # Per bank write bursts
system.mem_ctrls1.perBankRdBursts::19              62                       # Per bank write bursts
system.mem_ctrls1.perBankRdBursts::20              81                       # Per bank write bursts
system.mem_ctrls1.perBankRdBursts::21              58                       # Per bank write bursts
system.mem_ctrls1.perBankRdBursts::22              41                       # Per bank write bursts
system.mem_ctrls1.perBankRdBursts::23              26                       # Per bank write bursts
system.mem_ctrls1.perBankRdBursts::24              23                       # Per bank write bursts
system.mem_ctrls1.perBankRdBursts::25               7                       # Per bank write bursts
system.mem_ctrls1.perBankRdBursts::26              48                       # Per bank write bursts
system.mem_ctrls1.perBankRdBursts::27              61                       # Per bank write bursts
system.mem_ctrls1.perBankRdBursts::28              33                       # Per bank write bursts
system.mem_ctrls1.perBankRdBursts::29              28                       # Per bank write bursts
system.mem_ctrls1.perBankRdBursts::30              36                       # Per bank write bursts
system.mem_ctrls1.perBankRdBursts::31              21                       # Per bank write bursts
system.mem_ctrls1.perBankWrBursts::0               41                       # Per bank write bursts
system.mem_ctrls1.perBankWrBursts::1               37                       # Per bank write bursts
system.mem_ctrls1.perBankWrBursts::2               58                       # Per bank write bursts
system.mem_ctrls1.perBankWrBursts::3               61                       # Per bank write bursts
system.mem_ctrls1.perBankWrBursts::4               41                       # Per bank write bursts
system.mem_ctrls1.perBankWrBursts::5               37                       # Per bank write bursts
system.mem_ctrls1.perBankWrBursts::6               27                       # Per bank write bursts
system.mem_ctrls1.perBankWrBursts::7               29                       # Per bank write bursts
system.mem_ctrls1.perBankWrBursts::8               15                       # Per bank write bursts
system.mem_ctrls1.perBankWrBursts::9               16                       # Per bank write bursts
system.mem_ctrls1.perBankWrBursts::10              16                       # Per bank write bursts
system.mem_ctrls1.perBankWrBursts::11              48                       # Per bank write bursts
system.mem_ctrls1.perBankWrBursts::12              83                       # Per bank write bursts
system.mem_ctrls1.perBankWrBursts::13              37                       # Per bank write bursts
system.mem_ctrls1.perBankWrBursts::14              30                       # Per bank write bursts
system.mem_ctrls1.perBankWrBursts::15              21                       # Per bank write bursts
system.mem_ctrls1.perBankWrBursts::16              40                       # Per bank write bursts
system.mem_ctrls1.perBankWrBursts::17              36                       # Per bank write bursts
system.mem_ctrls1.perBankWrBursts::18              22                       # Per bank write bursts
system.mem_ctrls1.perBankWrBursts::19              48                       # Per bank write bursts
system.mem_ctrls1.perBankWrBursts::20              75                       # Per bank write bursts
system.mem_ctrls1.perBankWrBursts::21              46                       # Per bank write bursts
system.mem_ctrls1.perBankWrBursts::22              40                       # Per bank write bursts
system.mem_ctrls1.perBankWrBursts::23              30                       # Per bank write bursts
system.mem_ctrls1.perBankWrBursts::24              22                       # Per bank write bursts
system.mem_ctrls1.perBankWrBursts::25               7                       # Per bank write bursts
system.mem_ctrls1.perBankWrBursts::26              34                       # Per bank write bursts
system.mem_ctrls1.perBankWrBursts::27              59                       # Per bank write bursts
system.mem_ctrls1.perBankWrBursts::28              34                       # Per bank write bursts
[...]
system.switch_cpus_13.iew.memOrderViolationEvents        48562                       # Number of memory order violations
system.switch_cpus_13.iew.predictedTakenIncorrect      4250024                       # Number of branches that were predicted taken incorrectly
system.switch_cpus_13.iew.predictedNotTakenIncorrect      7149511                       # Number of branches that were predicted not taken incorrectly
system.switch_cpus_13.iew.branchMispredicts     11399535                       # Number of branch mispredicts detected at execute
system.switch_cpus_13.iew.iewExecutedInsts   1053173688                       # Number of executed instructions
system.switch_cpus_13.iew.iewExecLoadInsts    200622701                       # Number of load instructions executed
system.switch_cpus_13.iew.iewExecSquashedInsts     16583487                       # Number of squashed instructions skipped in execute
system.switch_cpus_13.iew.exec_swp                  0                       # number of swp insts executed
system.switch_cpus_13.iew.exec_nop                  0                       # number of nop insts executed
system.switch_cpus_13.iew.exec_refs         282777849                       # number of memory reference insts executed
system.switch_cpus_13.iew.exec_branches      94268881                       # Number of branches executed
system.switch_cpus_13.iew.exec_stores        82155148                       # Number of stores executed
system.switch_cpus_13.iew.exec_rate          2.079519                       # Inst execution rate
system.switch_cpus_13.iew.wb_sent          1040881383                       # cumulative count of insts sent to commit
system.switch_cpus_13.iew.wb_count         1037973318                       # cumulative count of insts written-back
system.switch_cpus_13.iew.wb_producers      708257417                       # num instructions producing a value
system.switch_cpus_13.iew.wb_consumers     1133116847                       # num instructions consuming a value
system.switch_cpus_13.iew.wb_rate            2.049505                       # insts written-back per cycle
system.switch_cpus_13.iew.wb_fanout          0.625052                       # average fanout of values written-back
system.switch_cpus_13.commit.commitSquashedInsts    212663938                       # The number of squashed insts skipped by commit
system.switch_cpus_13.commit.commitNonSpecStalls           81                       # The number of times commit has been forced to stall to communicate backwards
system.switch_cpus_13.commit.branchMispredicts      9881428                       # The number of times a branch was mispredicted
system.switch_cpus_13.commit.committed_per_cycle::samples    473391916                       # Number of insts commited each cycle
system.switch_cpus_13.commit.committed_per_cycle::mean     1.941733                       # Number of insts commited each cycle
system.switch_cpus_13.commit.committed_per_cycle::stdev     2.572317                       # Number of insts commited each cycle
system.switch_cpus_13.commit.committed_per_cycle::underflows            0      0.00%      0.00% # Number of insts commited each cycle
system.switch_cpus_13.commit.committed_per_cycle::0    226474470     47.84%     47.84% # Number of insts commited each cycle
system.switch_cpus_13.commit.committed_per_cycle::1     59702986     12.61%     60.45% # Number of insts commited each cycle
system.switch_cpus_13.commit.committed_per_cycle::2     29559709      6.24%     66.70% # Number of insts commited each cycle
system.switch_cpus_13.commit.committed_per_cycle::3     57344978     12.11%     78.81% # Number of insts commited each cycle
system.switch_cpus_13.commit.committed_per_cycle::4     25814591      5.45%     84.26% # Number of insts commited each cycle
system.switch_cpus_13.commit.committed_per_cycle::5     13738804      2.90%     87.17% # Number of insts commited each cycle
system.switch_cpus_13.commit.committed_per_cycle::6     11564683      2.44%     89.61% # Number of insts commited each cycle
system.switch_cpus_13.commit.committed_per_cycle::7      6530610      1.38%     90.99% # Number of insts commited each cycle
system.switch_cpus_13.commit.committed_per_cycle::8     42661085      9.01%    100.00% # Number of insts commited each cycle
system.switch_cpus_13.commit.committed_per_cycle::overflows            0      0.00%    100.00% # Number of insts commited each cycle
system.switch_cpus_13.commit.committed_per_cycle::min_value            0                       # Number of insts commited each cycle
system.switch_cpus_13.commit.committed_per_cycle::max_value            8                       # Number of insts commited each cycle
system.switch_cpus_13.commit.committed_per_cycle::total    473391916                       # Number of insts commited each cycle
system.switch_cpus_13.commit.committedInsts    500000004                       # Number of instructions committed
system.switch_cpus_13.commit.committedOps    919200770                       # Number of ops (including micro ops) committed
system.switch_cpus_13.commit.swp_count              0                       # Number of s/w prefetches committed
system.switch_cpus_13.commit.refs           247246491                       # Number of memory references committed
system.switch_cpus_13.commit.loads          173987238                       # Number of loads committed
system.switch_cpus_13.commit.membars               40                       # Number of memory barriers committed
system.switch_cpus_13.commit.branches        87380226                       # Number of branches committed
system.switch_cpus_13.commit.vec_insts              0                       # Number of committed Vector instructions.
system.switch_cpus_13.commit.fp_insts       189215131                       # Number of committed floating point instructions.
system.switch_cpus_13.commit.int_insts      803634850                       # Number of committed integer instructions.
system.switch_cpus_13.commit.function_calls     14588081                       # Number of function calls committed.
system.switch_cpus_13.commit.op_class_0::No_OpClass      4125142      0.45%      0.45% # Class of committed instruction
system.switch_cpus_13.commit.op_class_0::IntAlu    572651005     62.30%     62.75% # Class of committed instruction
system.switch_cpus_13.commit.op_class_0::IntMult       328783      0.04%     62.78% # Class of committed instruction
system.switch_cpus_13.commit.op_class_0::IntDiv          392      0.00%     62.78% # Class of committed instruction
system.switch_cpus_13.commit.op_class_0::FloatAdd      6186581      0.67%     63.46% # Class of committed instruction
system.switch_cpus_13.commit.op_class_0::FloatCmp            0      0.00%     63.46% # Class of committed instruction
system.switch_cpus_13.commit.op_class_0::FloatCvt            0      0.00%     63.46% # Class of committed instruction
system.switch_cpus_13.commit.op_class_0::FloatMult            0      0.00%     63.46% # Class of committed instruction
system.switch_cpus_13.commit.op_class_0::FloatMultAcc            0      0.00%     63.46% # Class of committed instruction
system.switch_cpus_13.commit.op_class_0::FloatDiv            0      0.00%     63.46% # Class of committed instruction
system.switch_cpus_13.commit.op_class_0::FloatMisc            0      0.00%     63.46% # Class of committed instruction
system.switch_cpus_13.commit.op_class_0::FloatSqrt            0      0.00%     63.46% # Class of committed instruction
system.switch_cpus_13.commit.op_class_0::SimdAdd            0      0.00%     63.46% # Class of committed instruction
system.switch_cpus_13.commit.op_class_0::SimdAddAcc            0      0.00%     63.46% # Class of committed instruction
system.switch_cpus_13.commit.op_class_0::SimdAlu      7667578      0.83%     64.29% # Class of committed instruction
system.switch_cpus_13.commit.op_class_0::SimdCmp          324      0.00%     64.29% # Class of committed instruction
system.switch_cpus_13.commit.op_class_0::SimdCvt         2398      0.00%     64.29% # Class of committed instruction
system.switch_cpus_13.commit.op_class_0::SimdMisc       544817      0.06%     64.35% # Class of committed instruction
system.switch_cpus_13.commit.op_class_0::SimdMult            0      0.00%     64.35% # Class of committed instruction
system.switch_cpus_13.commit.op_class_0::SimdMultAcc            0      0.00%     64.35% # Class of committed instruction
system.switch_cpus_13.commit.op_class_0::SimdShift            0      0.00%     64.35% # Class of committed instruction
system.switch_cpus_13.commit.op_class_0::SimdShiftAcc            0      0.00%     64.35% # Class of committed instruction
system.switch_cpus_13.commit.op_class_0::SimdSqrt            0      0.00%     64.35% # Class of committed instruction
system.switch_cpus_13.commit.op_class_0::SimdFloatAdd     31108301      3.38%     67.73% # Class of committed instruction
system.switch_cpus_13.commit.op_class_0::SimdFloatAlu            0      0.00%     67.73% # Class of committed instruction
system.switch_cpus_13.commit.op_class_0::SimdFloatCmp        95844      0.01%     67.74% # Class of committed instruction
system.switch_cpus_13.commit.op_class_0::SimdFloatCvt     17246993      1.88%     69.62% # Class of committed instruction
system.switch_cpus_13.commit.op_class_0::SimdFloatDiv      1155470      0.13%     69.75% # Class of committed instruction
system.switch_cpus_13.commit.op_class_0::SimdFloatMisc            0      0.00%     69.75% # Class of committed instruction
system.switch_cpus_13.commit.op_class_0::SimdFloatMult     30775378      3.35%     73.09% # Class of committed instruction
system.switch_cpus_13.commit.op_class_0::SimdFloatMultAcc            0      0.00%     73.09% # Class of committed instruction
system.switch_cpus_13.commit.op_class_0::SimdFloatSqrt        65273      0.01%     73.10% # Class of committed instruction
system.switch_cpus_13.commit.op_class_0::SimdAes            0      0.00%     73.10% # Class of committed instruction
system.switch_cpus_13.commit.op_class_0::SimdAesMix            0      0.00%     73.10% # Class of committed instruction
system.switch_cpus_13.commit.op_class_0::SimdSha1Hash            0      0.00%     73.10% # Class of committed instruction
system.switch_cpus_13.commit.op_class_0::SimdSha1Hash2            0      0.00%     73.10% # Class of committed instruction
system.switch_cpus_13.commit.op_class_0::SimdSha256Hash            0      0.00%     73.10% # Class of committed instruction
system.switch_cpus_13.commit.op_class_0::SimdSha256Hash2            0      0.00%     73.10% # Class of committed instruction
system.switch_cpus_13.commit.op_class_0::SimdShaSigma2            0      0.00%     73.10% # Class of committed instruction
system.switch_cpus_13.commit.op_class_0::SimdShaSigma3            0      0.00%     73.10% # Class of committed instruction
system.switch_cpus_13.commit.op_class_0::MemRead    107864057     11.73%     84.84% # Class of committed instruction
system.switch_cpus_13.commit.op_class_0::MemWrite     61903497      6.73%     91.57% # Class of committed instruction
system.switch_cpus_13.commit.op_class_0::FloatMemRead     66123181      7.19%     98.76% # Class of committed instruction
system.switch_cpus_13.commit.op_class_0::FloatMemWrite     11355756      1.24%    100.00% # Class of committed instruction
system.switch_cpus_13.commit.op_class_0::IprAccess            0      0.00%    100.00% # Class of committed instruction
system.switch_cpus_13.commit.op_class_0::InstPrefetch            0      0.00%    100.00% # Class of committed instruction
system.switch_cpus_13.commit.op_class_0::total    919200770                       # Class of committed instruction
system.switch_cpus_13.commit.bw_lim_events     42661085                       # number cycles where commit BW limit reached
system.switch_cpus_13.rob.rob_reads        1562595539                       # The number of ROB reads
system.switch_cpus_13.rob.rob_writes       2296919457                       # The number of ROB writes
system.switch_cpus_13.timesIdled                23196                       # Number of times that the entire CPU went into an idle state and unscheduled itself
system.switch_cpus_13.idleCycles                88081                       # Total number of cycles that the CPU has spent unscheduled due to idling
system.switch_cpus_13.committedInsts        500000004                       # Number of Instructions Simulated
system.switch_cpus_13.committedOps          919200770                       # Number of Ops (including micro ops) Simulated
system.switch_cpus_13.cpi                    1.012901                       # CPI: Cycles Per Instruction
system.switch_cpus_13.cpi_total              1.012901                       # CPI: Total CPI of All Threads
system.switch_cpus_13.ipc                    0.987263                       # IPC: Instructions Per Cycle
system.switch_cpus_13.ipc_total              0.987263                       # IPC: Total IPC of All Threads
system.switch_cpus_13.int_regfile_reads    1446582588                       # number of integer regfile reads
system.switch_cpus_13.int_regfile_writes    668825029                       # number of integer regfile writes
system.switch_cpus_13.fp_regfile_reads      300894025                       # number of floating regfile reads
system.switch_cpus_13.fp_regfile_writes     178461268                       # number of floating regfile writes
system.switch_cpus_13.cc_regfile_reads      372636290                       # number of cc regfile reads
system.switch_cpus_13.cc_regfile_writes     193112828                       # number of cc regfile writes
system.switch_cpus_13.misc_regfile_reads    487555785                       # number of misc regfile reads
system.tol3bus.snoop_filter.tot_requests        52151                       # Total number of requests made to the snoop filter.
system.tol3bus.snoop_filter.hit_single_requests        38422                       # Number of requests hitting in the snoop filter with a single holder of the requested data.
system.tol3bus.snoop_filter.hit_multi_requests            0                       # Number of requests hitting in the snoop filter with multiple (>1) holders of the requested data.
system.tol3bus.snoop_filter.tot_snoops              9                       # Total number of snoops made to the snoop filter.
system.tol3bus.snoop_filter.hit_single_snoops            9                       # Number of snoops hitting in the snoop filter with a single holder of the requested data.
system.tol3bus.snoop_filter.hit_multi_snoops            0                       # Number of snoops hitting in the snoop filter with multiple (>1) holders of the requested data.
system.tol3bus.pwrStateResidencyTicks::UNDEFINED 183846612250                       # Cumulative time (in ticks) in various power states
system.tol3bus.trans_dist::ReadResp              8817                       # Transaction distribution
system.tol3bus.trans_dist::WritebackDirty        11461                       # Transaction distribution
system.tol3bus.trans_dist::CleanEvict            5270                       # Transaction distribution
system.tol3bus.trans_dist::UpgradeReq           24326                       # Transaction distribution
system.tol3bus.trans_dist::UpgradeResp          24326                       # Transaction distribution
system.tol3bus.trans_dist::ReadExReq             4930                       # Transaction distribution
system.tol3bus.trans_dist::ReadExResp            4930                       # Transaction distribution
system.tol3bus.trans_dist::ReadSharedReq         8817                       # Transaction distribution
system.tol3bus.pkt_count_system.cpu0.l2cache.mem_side::system.l3.cpu_side         9039                       # Packet count per connected master and slave (bytes)
system.tol3bus.pkt_count_system.cpu1.l2cache.mem_side::system.l3.cpu_side        16381                       # Packet count per connected master and slave (bytes)
system.tol3bus.pkt_count_system.cpu2.l2cache.mem_side::system.l3.cpu_side        35074                       # Packet count per connected master and slave (bytes)
system.tol3bus.pkt_count_system.cpu3.l2cache.mem_side::system.l3.cpu_side        29730                       # Packet count per connected master and slave (bytes)
system.tol3bus.pkt_count::total                 90224                       # Packet count per connected master and slave (bytes)
system.tol3bus.pkt_size_system.cpu0.l2cache.mem_side::system.l3.cpu_side       316544                       # Cumulative packet size per connected master and slave (bytes)
system.tol3bus.pkt_size_system.cpu1.l2cache.mem_side::system.l3.cpu_side       484928                       # Cumulative packet size per connected master and slave (bytes)
system.tol3bus.pkt_size_system.cpu2.l2cache.mem_side::system.l3.cpu_side       310208                       # Cumulative packet size per connected master and slave (bytes)
system.tol3bus.pkt_size_system.cpu3.l2cache.mem_side::system.l3.cpu_side       342208                       # Cumulative packet size per connected master and slave (bytes)
system.tol3bus.pkt_size::total                1453888                       # Cumulative packet size per connected master and slave (bytes)
system.tol3bus.snoops                            2653                       # Total snoops (count)
system.tol3bus.snoopTraffic                    159424                       # Total snoop traffic (bytes)
system.tol3bus.snoop_fanout::samples            40726                       # Request fanout histogram
system.tol3bus.snoop_fanout::mean            0.000221                       # Request fanout histogram
system.tol3bus.snoop_fanout::stdev           0.014864                       # Request fanout histogram
system.tol3bus.snoop_fanout::underflows             0      0.00%      0.00% # Request fanout histogram
system.tol3bus.snoop_fanout::0                  40717     99.98%     99.98% # Request fanout histogram
system.tol3bus.snoop_fanout::1                      9      0.02%    100.00% # Request fanout histogram
system.tol3bus.snoop_fanout::2                      0      0.00%    100.00% # Request fanout histogram
system.tol3bus.snoop_fanout::3                      0      0.00%    100.00% # Request fanout histogram
system.tol3bus.snoop_fanout::4                      0      0.00%    100.00% # Request fanout histogram
system.tol3bus.snoop_fanout::overflows              0      0.00%    100.00% # Request fanout histogram
system.tol3bus.snoop_fanout::min_value              0                       # Request fanout histogram
system.tol3bus.snoop_fanout::max_value              1                       # Request fanout histogram
system.tol3bus.snoop_fanout::total              40726                       # Request fanout histogram
system.tol3bus.reqLayer0.occupancy           17523021                       # Layer occupancy (ticks)
system.tol3bus.reqLayer0.utilization              0.0                       # Layer utilization (%)
system.tol3bus.respLayer0.occupancy           2238750                       # Layer occupancy (ticks)
system.tol3bus.respLayer0.utilization             0.0                       # Layer utilization (%)
system.tol3bus.respLayer1.occupancy           3786724                       # Layer occupancy (ticks)
system.tol3bus.respLayer1.utilization             0.0                       # Layer utilization (%)
system.tol3bus.respLayer2.occupancy           5504122                       # Layer occupancy (ticks)
system.tol3bus.respLayer2.utilization             0.0                       # Layer utilization (%)
system.tol3bus.respLayer3.occupancy           4930380                       # Layer occupancy (ticks)
system.tol3bus.respLayer3.utilization             0.0                       # Layer utilization (%)

---------- End Simulation Statistics   ----------
