
---------- Begin Simulation Statistics ----------
sim_seconds                                  0.845974                       # Number of seconds simulated
sim_ticks                                845974268840                       # Number of ticks simulated
final_tick                               904665098000                       # Number of ticks from beginning of simulation (restored from checkpoints and never reset)
sim_freq                                 1000000000000                       # Frequency of simulated ticks
host_inst_rate                                  79599                       # Simulator instruction rate (inst/s)
host_op_rate                                   124096                       # Simulator op (including micro ops) rate (op/s)
host_tick_rate                               28076713                       # Simulator tick rate (ticks/s)
host_mem_usage                               17096728                       # Number of bytes of host memory used
host_seconds                                 30130.82                       # Real time elapsed on the host
sim_insts                                  2398369528                       # Number of instructions simulated
sim_ops                                    3739106210                       # Number of ops (including micro ops) simulated
system.voltage_domain.voltage                       1                       # Voltage in Volts
system.clk_domain.clock                          1000                       # Clock period in ticks
system.mem_ctrls0.pwrStateResidencyTicks::UNDEFINED 904665098000                       # Cumulative time (in ticks) in various power states
system.mem_ctrls0.bytes_read::.switch_cpus_10.inst         9856                       # Number of bytes read from this memory
system.mem_ctrls0.bytes_read::.switch_cpus_10.data    341133824                       # Number of bytes read from this memory
system.mem_ctrls0.bytes_read::.switch_cpus_11.inst         9792                       # Number of bytes read from this memory
system.mem_ctrls0.bytes_read::.switch_cpus_11.data    341228608                       # Number of bytes read from this memory
system.mem_ctrls0.bytes_read::.switch_cpus_12.inst        10368                       # Number of bytes read from this memory
system.mem_ctrls0.bytes_read::.switch_cpus_12.data    341338880                       # Number of bytes read from this memory
system.mem_ctrls0.bytes_read::.switch_cpus_13.inst         9664                       # Number of bytes read from this memory
system.mem_ctrls0.bytes_read::.switch_cpus_13.data    341854912                       # Number of bytes read from this memory
system.mem_ctrls0.bytes_read::total        1365595904                       # Number of bytes read from this memory
system.mem_ctrls0.bytes_inst_read::.switch_cpus_10.inst         9856                       # Number of instructions bytes read from this memory
system.mem_ctrls0.bytes_inst_read::.switch_cpus_11.inst         9792                       # Number of instructions bytes read from this memory
system.mem_ctrls0.bytes_inst_read::.switch_cpus_12.inst        10368                       # Number of instructions bytes read from this memory
system.mem_ctrls0.bytes_inst_read::.switch_cpus_13.inst         9664                       # Number of instructions bytes read from this memory
system.mem_ctrls0.bytes_inst_read::total        39680                       # Number of instructions bytes read from this memory
system.mem_ctrls0.bytes_written::.writebacks    720165056                       # Number of bytes written to this memory
system.mem_ctrls0.bytes_written::total      720165056                       # Number of bytes written to this memory
system.mem_ctrls0.num_reads::.switch_cpus_10.inst          154                       # Number of read requests responded to by this memory
system.mem_ctrls0.num_reads::.switch_cpus_10.data      5330216                       # Number of read requests responded to by this memory
system.mem_ctrls0.num_reads::.switch_cpus_11.inst          153                       # Number of read requests responded to by this memory
system.mem_ctrls0.num_reads::.switch_cpus_11.data      5331697                       # Number of read requests responded to by this memory
system.mem_ctrls0.num_reads::.switch_cpus_12.inst          162                       # Number of read requests responded to by this memory
system.mem_ctrls0.num_reads::.switch_cpus_12.data      5333420                       # Number of read requests responded to by this memory
system.mem_ctrls0.num_reads::.switch_cpus_13.inst          151                       # Number of read requests responded to by this memory
system.mem_ctrls0.num_reads::.switch_cpus_13.data      5341483                       # Number of read requests responded to by this memory
system.mem_ctrls0.num_reads::total           21337436                       # Number of read requests responded to by this memory
system.mem_ctrls0.num_writes::.writebacks     11252579                       # Number of write requests responded to by this memory
system.mem_ctrls0.num_writes::total          11252579                       # Number of write requests responded to by this memory
system.mem_ctrls0.bw_read::.switch_cpus_10.inst        11650                       # Total read bandwidth from this memory (bytes/s)
system.mem_ctrls0.bw_read::.switch_cpus_10.data    403243735                       # Total read bandwidth from this memory (bytes/s)
system.mem_ctrls0.bw_read::.switch_cpus_11.inst        11575                       # Total read bandwidth from this memory (bytes/s)
system.mem_ctrls0.bw_read::.switch_cpus_11.data    403355776                       # Total read bandwidth from this memory (bytes/s)
system.mem_ctrls0.bw_read::.switch_cpus_12.inst        12256                       # Total read bandwidth from this memory (bytes/s)
system.mem_ctrls0.bw_read::.switch_cpus_12.data    403486125                       # Total read bandwidth from this memory (bytes/s)
system.mem_ctrls0.bw_read::.switch_cpus_13.inst        11424                       # Total read bandwidth from this memory (bytes/s)
system.mem_ctrls0.bw_read::.switch_cpus_13.data    404096111                       # Total read bandwidth from this memory (bytes/s)
system.mem_ctrls0.bw_read::total           1614228652                       # Total read bandwidth from this memory (bytes/s)
system.mem_ctrls0.bw_inst_read::.switch_cpus_10.inst        11650                       # Instruction read bandwidth from this memory (bytes/s)
system.mem_ctrls0.bw_inst_read::.switch_cpus_11.inst        11575                       # Instruction read bandwidth from this memory (bytes/s)
system.mem_ctrls0.bw_inst_read::.switch_cpus_12.inst        12256                       # Instruction read bandwidth from this memory (bytes/s)
system.mem_ctrls0.bw_inst_read::.switch_cpus_13.inst        11424                       # Instruction read bandwidth from this memory (bytes/s)
system.mem_ctrls0.bw_inst_read::total           46904                       # Instruction read bandwidth from this memory (bytes/s)
system.mem_ctrls0.bw_write::.writebacks     851284823                       # Write bandwidth from this memory (bytes/s)
system.mem_ctrls0.bw_write::total           851284823                       # Write bandwidth from this memory (bytes/s)
system.mem_ctrls0.bw_total::.writebacks     851284823                       # Total bandwidth to/from this memory (bytes/s)
system.mem_ctrls0.bw_total::.switch_cpus_10.inst        11650                       # Total bandwidth to/from this memory (bytes/s)
system.mem_ctrls0.bw_total::.switch_cpus_10.data    403243735                       # Total bandwidth to/from this memory (bytes/s)
system.mem_ctrls0.bw_total::.switch_cpus_11.inst        11575                       # Total bandwidth to/from this memory (bytes/s)
system.mem_ctrls0.bw_total::.switch_cpus_11.data    403355776                       # Total bandwidth to/from this memory (bytes/s)
system.mem_ctrls0.bw_total::.switch_cpus_12.inst        12256                       # Total bandwidth to/from this memory (bytes/s)
system.mem_ctrls0.bw_total::.switch_cpus_12.data    403486125                       # Total bandwidth to/from this memory (bytes/s)
system.mem_ctrls0.bw_total::.switch_cpus_13.inst        11424                       # Total bandwidth to/from this memory (bytes/s)
system.mem_ctrls0.bw_total::.switch_cpus_13.data    404096111                       # Total bandwidth to/from this memory (bytes/s)
system.mem_ctrls0.bw_total::total          2465513476                       # Total bandwidth to/from this memory (bytes/s)
system.mem_ctrls0.avgPriority_.writebacks::samples  11252579.00                       # Average QoS priority value for accepted requests
system.mem_ctrls0.avgPriority_.switch_cpus_10.inst::samples       154.00                       # Average QoS priority value for accepted requests
system.mem_ctrls0.avgPriority_.switch_cpus_10.data::samples   5330218.00                       # Average QoS priority value for accepted requests
system.mem_ctrls0.avgPriority_.switch_cpus_11.inst::samples       153.00                       # Average QoS priority value for accepted requests
system.mem_ctrls0.avgPriority_.switch_cpus_11.data::samples   5331697.00                       # Average QoS priority value for accepted requests
system.mem_ctrls0.avgPriority_.switch_cpus_12.inst::samples       162.00                       # Average QoS priority value for accepted requests
system.mem_ctrls0.avgPriority_.switch_cpus_12.data::samples   5333421.00                       # Average QoS priority value for accepted requests
system.mem_ctrls0.avgPriority_.switch_cpus_13.inst::samples       151.00                       # Average QoS priority value for accepted requests
system.mem_ctrls0.avgPriority_.switch_cpus_13.data::samples   5341483.00                       # Average QoS priority value for accepted requests
system.mem_ctrls0.priorityMinLatency     0.000000017860                       # per QoS priority minimum request to response latency (s)
system.mem_ctrls0.priorityMaxLatency     0.329102866120                       # per QoS priority maximum request to response latency (s)
system.mem_ctrls0.numReadWriteTurnArounds       679211                       # Number of turnarounds from READ to WRITE
system.mem_ctrls0.numWriteReadTurnArounds       679211                       # Number of turnarounds from WRITE to READ
system.mem_ctrls0.numStayReadState           47148165                       # Number of times bus staying in READ state
system.mem_ctrls0.numStayWriteState          10588630                       # Number of times bus staying in WRITE state
system.mem_ctrls0.readReqs                   21337439                       # Number of read requests accepted
system.mem_ctrls0.writeReqs                  11252579                       # Number of write requests accepted
system.mem_ctrls0.readBursts                 21337439                       # Number of DRAM read bursts, including those serviced by the write queue
system.mem_ctrls0.writeBursts                11252579                       # Number of DRAM write bursts, including those merged in the write queue
system.mem_ctrls0.bytesReadDRAM            1365596032                       # Total number of bytes read from DRAM
system.mem_ctrls0.bytesReadWrQ                      0                       # Total number of bytes read from write queue
system.mem_ctrls0.bytesWritten              720161024                       # Total number of bytes written to DRAM
system.mem_ctrls0.bytesReadSys             1365596096                       # Total read bytes from the system interface side
system.mem_ctrls0.bytesWrittenSys           720165056                       # Total written bytes from the system interface side
system.mem_ctrls0.servicedByWrQ                     0                       # Number of DRAM read bursts serviced by the write queue
system.mem_ctrls0.mergedWrBursts                    0                       # Number of DRAM write bursts merged with an existing one
system.mem_ctrls0.neitherReadNorWriteReqs            0                       # Number of requests that are neither read nor write
system.mem_ctrls0.perBankRdBursts::0           667006                       # Per bank write bursts
system.mem_ctrls0.perBankRdBursts::1           666819                       # Per bank write bursts
system.mem_ctrls0.perBankRdBursts::2           666689                       # Per bank write bursts
system.mem_ctrls0.perBankRdBursts::3           666613                       # Per bank write bursts
system.mem_ctrls0.perBankRdBursts::4           666736                       # Per bank write bursts
system.mem_ctrls0.perBankRdBursts::5           666595                       # Per bank write bursts
system.mem_ctrls0.perBankRdBursts::6           666682                       # Per bank write bursts
system.mem_ctrls0.perBankRdBursts::7           666511                       # Per bank write bursts
system.mem_ctrls0.perBankRdBursts::8           666368                       # Per bank write bursts
system.mem_ctrls0.perBankRdBursts::9           666386                       # Per bank write bursts
system.mem_ctrls0.perBankRdBursts::10          666472                       # Per bank write bursts
system.mem_ctrls0.perBankRdBursts::11          666449                       # Per bank write bursts
system.mem_ctrls0.perBankRdBursts::12          666443                       # Per bank write bursts
system.mem_ctrls0.perBankRdBursts::13          666441                       # Per bank write bursts
system.mem_ctrls0.perBankRdBursts::14          666598                       # Per bank write bursts
system.mem_ctrls0.perBankRdBursts::15          666712                       # Per bank write bursts
system.mem_ctrls0.perBankRdBursts::16          666731                       # Per bank write bursts
system.mem_ctrls0.perBankRdBursts::17          666826                       # Per bank write bursts
system.mem_ctrls0.perBankRdBursts::18          666916                       # Per bank write bursts
system.mem_ctrls0.perBankRdBursts::19          666836                       # Per bank write bursts
system.mem_ctrls0.perBankRdBursts::20          666760                       # Per bank write bursts
system.mem_ctrls0.perBankRdBursts::21          666959                       # Per bank write bursts
system.mem_ctrls0.perBankRdBursts::22          666882                       # Per bank write bursts
system.mem_ctrls0.perBankRdBursts::23          666974                       # Per bank write bursts
system.mem_ctrls0.perBankRdBursts::24          667058                       # Per bank write bursts
system.mem_ctrls0.perBankRdBursts::25          667084                       # Per bank write bursts
system.mem_ctrls0.perBankRdBursts::26          667114                       # Per bank write bursts
system.mem_ctrls0.perBankRdBursts::27          667321                       # Per bank write bursts
system.mem_ctrls0.perBankRdBursts::28          667218                       # Per bank write bursts
system.mem_ctrls0.perBankRdBursts::29          667161                       # Per bank write bursts
system.mem_ctrls0.perBankRdBursts::30          667033                       # Per bank write bursts
system.mem_ctrls0.perBankRdBursts::31          667045                       # Per bank write bursts
system.mem_ctrls0.perBankWrBursts::0           351581                       # Per bank write bursts
system.mem_ctrls0.perBankWrBursts::1           351422                       # Per bank write bursts
system.mem_ctrls0.perBankWrBursts::2           351408                       # Per bank write bursts
system.mem_ctrls0.perBankWrBursts::3           351331                       # Per bank write bursts
system.mem_ctrls0.perBankWrBursts::4           351379                       # Per bank write bursts
system.mem_ctrls0.perBankWrBursts::5           351333                       # Per bank write bursts
system.mem_ctrls0.perBankWrBursts::6           351314                       # Per bank write bursts
system.mem_ctrls0.perBankWrBursts::7           351319                       # Per bank write bursts
system.mem_ctrls0.perBankWrBursts::8           351228                       # Per bank write bursts
system.mem_ctrls0.perBankWrBursts::9           351184                       # Per bank write bursts
system.mem_ctrls0.perBankWrBursts::10          351224                       # Per bank write bursts
system.mem_ctrls0.perBankWrBursts::11          351204                       # Per bank write bursts
system.mem_ctrls0.perBankWrBursts::12          351390                       # Per bank write bursts
system.mem_ctrls0.perBankWrBursts::13          351427                       # Per bank write bursts
system.mem_ctrls0.perBankWrBursts::14          351642                       # Per bank write bursts
system.mem_ctrls0.perBankWrBursts::15          351762                       # Per bank write bursts
system.mem_ctrls0.perBankWrBursts::16          351897                       # Per bank write bursts
system.mem_ctrls0.perBankWrBursts::17          352104                       # Per bank write bursts
system.mem_ctrls0.perBankWrBursts::18          352180                       # Per bank write bursts
system.mem_ctrls0.perBankWrBursts::19          352196                       # Per bank write bursts
system.mem_ctrls0.perBankWrBursts::20          352108                       # Per bank write bursts
system.mem_ctrls0.perBankWrBursts::21          352126                       # Per bank write bursts
system.mem_ctrls0.perBankWrBursts::22          352012                       # Per bank write bursts
system.mem_ctrls0.perBankWrBursts::23          351944                       # Per bank write bursts
system.mem_ctrls0.perBankWrBursts::24          351922                       # Per bank write bursts
system.mem_ctrls0.perBankWrBursts::25          351802                       # Per bank write bursts
system.mem_ctrls0.perBankWrBursts::26          351748                       # Per bank write bursts
system.mem_ctrls0.perBankWrBursts::27          351769                       # Per bank write bursts
system.mem_ctrls0.perBankWrBursts::28          351683                       # Per bank write bursts
system.mem_ctrls0.perBankWrBursts::29          351664                       # Per bank write bursts
system.mem_ctrls0.perBankWrBursts::30          351562                       # Per bank write bursts
system.mem_ctrls0.perBankWrBursts::31          351651                       # Per bank write bursts
system.mem_ctrls0.numRdRetry                        0                       # Number of times read queue was full causing retry
system.mem_ctrls0.numWrRetry                        0                       # Number of times write queue was full causing retry
system.mem_ctrls0.totGap                 845974232999                       # Total gap between requests
system.mem_ctrls0.readPktSize::0                    0                       # Read request sizes (log2)
system.mem_ctrls0.readPktSize::1                    0                       # Read request sizes (log2)
system.mem_ctrls0.readPktSize::2                    0                       # Read request sizes (log2)
system.mem_ctrls0.readPktSize::3                    0                       # Read request sizes (log2)
system.mem_ctrls0.readPktSize::4                    0                       # Read request sizes (log2)
system.mem_ctrls0.readPktSize::5                    0                       # Read request sizes (log2)
system.mem_ctrls0.readPktSize::6             21337439                       # Read request sizes (log2)
system.mem_ctrls0.writePktSize::0                   0                       # Write request sizes (log2)
system.mem_ctrls0.writePktSize::1                   0                       # Write request sizes (log2)
system.mem_ctrls0.writePktSize::2                   0                       # Write request sizes (log2)
system.mem_ctrls0.writePktSize::3                   0                       # Write request sizes (log2)
system.mem_ctrls0.writePktSize::4                   0                       # Write request sizes (log2)
system.mem_ctrls0.writePktSize::5                   0                       # Write request sizes (log2)
system.mem_ctrls0.writePktSize::6            11252579                       # Write request sizes (log2)
system.mem_ctrls0.rdQLenPdf::0                7069760                       # What read queue length does an incoming req see
system.mem_ctrls0.rdQLenPdf::1                6724741                       # What read queue length does an incoming req see
system.mem_ctrls0.rdQLenPdf::2                4263226                       # What read queue length does an incoming req see
system.mem_ctrls0.rdQLenPdf::3                2078763                       # What read queue length does an incoming req see
system.mem_ctrls0.rdQLenPdf::4                 806600                       # What read queue length does an incoming req see
system.mem_ctrls0.rdQLenPdf::5                 277217                       # What read queue length does an incoming req see
system.mem_ctrls0.rdQLenPdf::6                  83706                       # What read queue length does an incoming req see
system.mem_ctrls0.rdQLenPdf::7                  22866                       # What read queue length does an incoming req see
system.mem_ctrls0.rdQLenPdf::8                   5284                       # What read queue length does an incoming req see
system.mem_ctrls0.rdQLenPdf::9                   3000                       # What read queue length does an incoming req see
system.mem_ctrls0.rdQLenPdf::10                  1610                       # What read queue length does an incoming req see
system.mem_ctrls0.rdQLenPdf::11                   627                       # What read queue length does an incoming req see
system.mem_ctrls0.rdQLenPdf::12                    27                       # What read queue length does an incoming req see
system.mem_ctrls0.rdQLenPdf::13                    10                       # What read queue length does an incoming req see
system.mem_ctrls0.rdQLenPdf::14                     2                       # What read queue length does an incoming req see
system.mem_ctrls0.rdQLenPdf::15                     0                       # What read queue length does an incoming req see
system.mem_ctrls0.rdQLenPdf::16                     0                       # What read queue length does an incoming req see
system.mem_ctrls0.rdQLenPdf::17                     0                       # What read queue length does an incoming req see
system.mem_ctrls0.rdQLenPdf::18                     0                       # What read queue length does an incoming req see
system.mem_ctrls0.rdQLenPdf::19                     0                       # What read queue length does an incoming req see
system.mem_ctrls0.rdQLenPdf::20                     0                       # What read queue length does an incoming req see
system.mem_ctrls0.rdQLenPdf::21                     0                       # What read queue length does an incoming req see
system.mem_ctrls0.rdQLenPdf::22                     0                       # What read queue length does an incoming req see
system.mem_ctrls0.rdQLenPdf::23                     0                       # What read queue length does an incoming req see
system.mem_ctrls0.rdQLenPdf::24                     0                       # What read queue length does an incoming req see
system.mem_ctrls0.rdQLenPdf::25                     0                       # What read queue length does an incoming req see
system.mem_ctrls0.rdQLenPdf::26                     0                       # What read queue length does an incoming req see
system.mem_ctrls0.rdQLenPdf::27                     0                       # What read queue length does an incoming req see
system.mem_ctrls0.rdQLenPdf::28                     0                       # What read queue length does an incoming req see
system.mem_ctrls0.rdQLenPdf::29                     0                       # What read queue length does an incoming req see
system.mem_ctrls0.rdQLenPdf::30                     0                       # What read queue length does an incoming req see
system.mem_ctrls0.rdQLenPdf::31                     0                       # What read queue length does an incoming req see
system.mem_ctrls0.rdQLenPdf::32                     0                       # What read queue length does an incoming req see
system.mem_ctrls0.rdQLenPdf::33                     0                       # What read queue length does an incoming req see
system.mem_ctrls0.rdQLenPdf::34                     0                       # What read queue length does an incoming req see
system.mem_ctrls0.rdQLenPdf::35                     0                       # What read queue length does an incoming req see
system.mem_ctrls0.rdQLenPdf::36                     0                       # What read queue length does an incoming req see
system.mem_ctrls0.rdQLenPdf::37                     0                       # What read queue length does an incoming req see
system.mem_ctrls0.rdQLenPdf::38                     0                       # What read queue length does an incoming req see
system.mem_ctrls0.rdQLenPdf::39                     0                       # What read queue length does an incoming req see
system.mem_ctrls0.rdQLenPdf::40                     0                       # What read queue length does an incoming req see
system.mem_ctrls0.rdQLenPdf::41                     0                       # What read queue length does an incoming req see
system.mem_ctrls0.rdQLenPdf::42                     0                       # What read queue length does an incoming req see
system.mem_ctrls0.rdQLenPdf::43                     0                       # What read queue length does an incoming req see
system.mem_ctrls0.rdQLenPdf::44                     0                       # What read queue length does an incoming req see
system.mem_ctrls0.rdQLenPdf::45                     0                       # What read queue length does an incoming req see
system.mem_ctrls0.rdQLenPdf::46                     0                       # What read queue length does an incoming req see
system.mem_ctrls0.rdQLenPdf::47                     0                       # What read queue length does an incoming req see
system.mem_ctrls0.rdQLenPdf::48                     0                       # What read queue length does an incoming req see
system.mem_ctrls0.rdQLenPdf::49                     0                       # What read queue length does an incoming req see
system.mem_ctrls0.rdQLenPdf::50                     0                       # What read queue length does an incoming req see
system.mem_ctrls0.rdQLenPdf::51                     0                       # What read queue length does an incoming req see
system.mem_ctrls0.rdQLenPdf::52                     0                       # What read queue length does an incoming req see
system.mem_ctrls0.rdQLenPdf::53                     0                       # What read queue length does an incoming req see
system.mem_ctrls0.rdQLenPdf::54                     0                       # What read queue length does an incoming req see
system.mem_ctrls0.rdQLenPdf::55                     0                       # What read queue length does an incoming req see
system.mem_ctrls0.rdQLenPdf::56                     0                       # What read queue length does an incoming req see
system.mem_ctrls0.rdQLenPdf::57                     0                       # What read queue length does an incoming req see
system.mem_ctrls0.rdQLenPdf::58                     0                       # What read queue length does an incoming req see
system.mem_ctrls0.rdQLenPdf::59                     0                       # What read queue length does an incoming req see
system.mem_ctrls0.rdQLenPdf::60                     0                       # What read queue length does an incoming req see
system.mem_ctrls0.rdQLenPdf::61                     0                       # What read queue length does an incoming req see
system.mem_ctrls0.rdQLenPdf::62                     0                       # What read queue length does an incoming req see
system.mem_ctrls0.rdQLenPdf::63                     0                       # What read queue length does an incoming req see
system.mem_ctrls0.wrQLenPdf::0                      1                       # What write queue length does an incoming req see
system.mem_ctrls0.wrQLenPdf::1                      1                       # What write queue length does an incoming req see
system.mem_ctrls0.wrQLenPdf::2                      1                       # What write queue length does an incoming req see
system.mem_ctrls0.wrQLenPdf::3                      1                       # What write queue length does an incoming req see
system.mem_ctrls0.wrQLenPdf::4                      1                       # What write queue length does an incoming req see
system.mem_ctrls0.wrQLenPdf::5                      1                       # What write queue length does an incoming req see
system.mem_ctrls0.wrQLenPdf::6                      1                       # What write queue length does an incoming req see
system.mem_ctrls0.wrQLenPdf::7                      1                       # What write queue length does an incoming req see
system.mem_ctrls0.wrQLenPdf::8                      1                       # What write queue length does an incoming req see
system.mem_ctrls0.wrQLenPdf::9                      1                       # What write queue length does an incoming req see
system.mem_ctrls0.wrQLenPdf::10                     1                       # What write queue length does an incoming req see
system.mem_ctrls0.wrQLenPdf::11                     1                       # What write queue length does an incoming req see
system.mem_ctrls0.wrQLenPdf::12                     1                       # What write queue length does an incoming req see
system.mem_ctrls0.wrQLenPdf::13                     1                       # What write queue length does an incoming req see
system.mem_ctrls0.wrQLenPdf::14                     1                       # What write queue length does an incoming req see
system.mem_ctrls0.wrQLenPdf::15                     1                       # What write queue length does an incoming req see
system.mem_ctrls0.wrQLenPdf::16                     1                       # What write queue length does an incoming req see
system.mem_ctrls0.wrQLenPdf::17                     1                       # What write queue length does an incoming req see
system.mem_ctrls0.wrQLenPdf::18                     1                       # What write queue length does an incoming req see
system.mem_ctrls0.wrQLenPdf::19                     1                       # What write queue length does an incoming req see
system.mem_ctrls0.wrQLenPdf::20                     1                       # What write queue length does an incoming req see
system.mem_ctrls0.wrQLenPdf::21                     1                       # What write queue length does an incoming req see
system.mem_ctrls0.wrQLenPdf::22                     1                       # What write queue length does an incoming req see
system.mem_ctrls0.wrQLenPdf::23                     1                       # What write queue length does an incoming req see
system.mem_ctrls0.wrQLenPdf::24                     1                       # What write queue length does an incoming req see
system.mem_ctrls0.wrQLenPdf::25                     1                       # What write queue length does an incoming req see
system.mem_ctrls0.wrQLenPdf::26                     1                       # What write queue length does an incoming req see
system.mem_ctrls0.wrQLenPdf::27                     1                       # What write queue length does an incoming req see
system.mem_ctrls0.wrQLenPdf::28                     1                       # What write queue length does an incoming req see
system.mem_ctrls0.wrQLenPdf::29                     1                       # What write queue length does an incoming req see
system.mem_ctrls0.wrQLenPdf::30                     1                       # What write queue length does an incoming req see
system.mem_ctrls0.wrQLenPdf::31                     1                       # What write queue length does an incoming req see
system.mem_ctrls0.wrQLenPdf::32                     1                       # What write queue length does an incoming req see
system.mem_ctrls0.wrQLenPdf::33                     1                       # What write queue length does an incoming req see
system.mem_ctrls0.wrQLenPdf::34                     1                       # What write queue length does an incoming req see
system.mem_ctrls0.wrQLenPdf::35                     1                       # What write queue length does an incoming req see
system.mem_ctrls0.wrQLenPdf::36                     1                       # What write queue length does an incoming req see
system.mem_ctrls0.wrQLenPdf::37                     1                       # What write queue length does an incoming req see
system.mem_ctrls0.wrQLenPdf::38                     1                       # What write queue length does an incoming req see
system.mem_ctrls0.wrQLenPdf::39                     1                       # What write queue length does an incoming req see
system.mem_ctrls0.wrQLenPdf::40                     1                       # What write queue length does an incoming req see
system.mem_ctrls0.wrQLenPdf::41                     1                       # What write queue length does an incoming req see
system.mem_ctrls0.wrQLenPdf::42                     1                       # What write queue length does an incoming req see
system.mem_ctrls0.wrQLenPdf::43                     1                       # What write queue length does an incoming req see
system.mem_ctrls0.wrQLenPdf::44                     1                       # What write queue length does an incoming req see
system.mem_ctrls0.wrQLenPdf::45                     1                       # What write queue length does an incoming req see
system.mem_ctrls0.wrQLenPdf::46                     1                       # What write queue length does an incoming req see
system.mem_ctrls0.wrQLenPdf::47                116273                       # What write queue length does an incoming req see
system.mem_ctrls0.wrQLenPdf::48                135475                       # What write queue length does an incoming req see
system.mem_ctrls0.wrQLenPdf::49                373127                       # What write queue length does an incoming req see
system.mem_ctrls0.wrQLenPdf::50                588008                       # What write queue length does an incoming req see
system.mem_ctrls0.wrQLenPdf::51                675319                       # What write queue length does an incoming req see
system.mem_ctrls0.wrQLenPdf::52                698871                       # What write queue length does an incoming req see
system.mem_ctrls0.wrQLenPdf::53                705569                       # What write queue length does an incoming req see
system.mem_ctrls0.wrQLenPdf::54                708452                       # What write queue length does an incoming req see
system.mem_ctrls0.wrQLenPdf::55                712080                       # What write queue length does an incoming req see
system.mem_ctrls0.wrQLenPdf::56                715968                       # What write queue length does an incoming req see
system.mem_ctrls0.wrQLenPdf::57                719848                       # What write queue length does an incoming req see
system.mem_ctrls0.wrQLenPdf::58                722781                       # What write queue length does an incoming req see
system.mem_ctrls0.wrQLenPdf::59                730324                       # What write queue length does an incoming req see
system.mem_ctrls0.wrQLenPdf::60                732729                       # What write queue length does an incoming req see
system.mem_ctrls0.wrQLenPdf::61                737333                       # What write queue length does an incoming req see
system.mem_ctrls0.wrQLenPdf::62                725770                       # What write queue length does an incoming req see
system.mem_ctrls0.wrQLenPdf::63                711235                       # What write queue length does an incoming req see
system.mem_ctrls0.wrQLenPdf::64                712493                       # What write queue length does an incoming req see
system.mem_ctrls0.wrQLenPdf::65                 16750                       # What write queue length does an incoming req see
system.mem_ctrls0.wrQLenPdf::66                  7239                       # What write queue length does an incoming req see
system.mem_ctrls0.wrQLenPdf::67                  3316                       # What write queue length does an incoming req see
system.mem_ctrls0.wrQLenPdf::68                  1477                       # What write queue length does an incoming req see
system.mem_ctrls0.wrQLenPdf::69                   624                       # What write queue length does an incoming req see
system.mem_ctrls0.wrQLenPdf::70                   345                       # What write queue length does an incoming req see
system.mem_ctrls0.wrQLenPdf::71                   233                       # What write queue length does an incoming req see
system.mem_ctrls0.wrQLenPdf::72                   171                       # What write queue length does an incoming req see
system.mem_ctrls0.wrQLenPdf::73                   117                       # What write queue length does an incoming req see
system.mem_ctrls0.wrQLenPdf::74                    93                       # What write queue length does an incoming req see
system.mem_ctrls0.wrQLenPdf::75                    87                       # What write queue length does an incoming req see
system.mem_ctrls0.wrQLenPdf::76                    59                       # What write queue length does an incoming req see
system.mem_ctrls0.wrQLenPdf::77                    52                       # What write queue length does an incoming req see
system.mem_ctrls0.wrQLenPdf::78                    49                       # What write queue length does an incoming req see
system.mem_ctrls0.wrQLenPdf::79                    35                       # What write queue length does an incoming req see
system.mem_ctrls0.wrQLenPdf::80                    23                       # What write queue length does an incoming req see
system.mem_ctrls0.wrQLenPdf::81                    24                       # What write queue length does an incoming req see
system.mem_ctrls0.wrQLenPdf::82                    20                       # What write queue length does an incoming req see
system.mem_ctrls0.wrQLenPdf::83                    19                       # What write queue length does an incoming req see
system.mem_ctrls0.wrQLenPdf::84                    18                       # What write queue length does an incoming req see
system.mem_ctrls0.wrQLenPdf::85                    12                       # What write queue length does an incoming req see
system.mem_ctrls0.wrQLenPdf::86                     8                       # What write queue length does an incoming req see
system.mem_ctrls0.wrQLenPdf::87                     8                       # What write queue length does an incoming req see
system.mem_ctrls0.wrQLenPdf::88                    10                       # What write queue length does an incoming req see
system.mem_ctrls0.wrQLenPdf::89                     8                       # What write queue length does an incoming req see
system.mem_ctrls0.wrQLenPdf::90                     7                       # What write queue length does an incoming req see
system.mem_ctrls0.wrQLenPdf::91                     9                       # What write queue length does an incoming req see
system.mem_ctrls0.wrQLenPdf::92                    10                       # What write queue length does an incoming req see
system.mem_ctrls0.wrQLenPdf::93                     9                       # What write queue length does an incoming req see
system.mem_ctrls0.wrQLenPdf::94                     5                       # What write queue length does an incoming req see
system.mem_ctrls0.wrQLenPdf::95                     8                       # What write queue length does an incoming req see
system.mem_ctrls0.wrQLenPdf::96                     5                       # What write queue length does an incoming req see
system.mem_ctrls0.wrQLenPdf::97                     7                       # What write queue length does an incoming req see
system.mem_ctrls0.wrQLenPdf::98                     4                       # What write queue length does an incoming req see
system.mem_ctrls0.wrQLenPdf::99                     3                       # What write queue length does an incoming req see
system.mem_ctrls0.wrQLenPdf::100                    3                       # What write queue length does an incoming req see
system.mem_ctrls0.wrQLenPdf::101                    6                       # What write queue length does an incoming req see
system.mem_ctrls0.wrQLenPdf::102                    2                       # What write queue length does an incoming req see
system.mem_ctrls0.wrQLenPdf::103                    1                       # What write queue length does an incoming req see
system.mem_ctrls0.wrQLenPdf::104                    1                       # What write queue length does an incoming req see
system.mem_ctrls0.wrQLenPdf::105                    0                       # What write queue length does an incoming req see
system.mem_ctrls0.wrQLenPdf::106                    0                       # What write queue length does an incoming req see
system.mem_ctrls0.wrQLenPdf::107                    0                       # What write queue length does an incoming req see
system.mem_ctrls0.wrQLenPdf::108                    0                       # What write queue length does an incoming req see
system.mem_ctrls0.wrQLenPdf::109                    0                       # What write queue length does an incoming req see
system.mem_ctrls0.wrQLenPdf::110                    0                       # What write queue length does an incoming req see
system.mem_ctrls0.wrQLenPdf::111                    0                       # What write queue length does an incoming req see
system.mem_ctrls0.wrQLenPdf::112                    0                       # What write queue length does an incoming req see
system.mem_ctrls0.wrQLenPdf::113                    0                       # What write queue length does an incoming req see
system.mem_ctrls0.wrQLenPdf::114                    0                       # What write queue length does an incoming req see
system.mem_ctrls0.wrQLenPdf::115                    0                       # What write queue length does an incoming req see
system.mem_ctrls0.wrQLenPdf::116                    0                       # What write queue length does an incoming req see
system.mem_ctrls0.wrQLenPdf::117                    0                       # What write queue length does an incoming req see
system.mem_ctrls0.wrQLenPdf::118                    0                       # What write queue length does an incoming req see
system.mem_ctrls0.wrQLenPdf::119                    0                       # What write queue length does an incoming req see
system.mem_ctrls0.wrQLenPdf::120                    0                       # What write queue length does an incoming req see
system.mem_ctrls0.wrQLenPdf::121                    0                       # What write queue length does an incoming req see
system.mem_ctrls0.wrQLenPdf::122                    0                       # What write queue length does an incoming req see
system.mem_ctrls0.wrQLenPdf::123                    0                       # What write queue length does an incoming req see
system.mem_ctrls0.wrQLenPdf::124                    0                       # What write queue length does an incoming req see
system.mem_ctrls0.wrQLenPdf::125                    0                       # What write queue length does an incoming req see
system.mem_ctrls0.wrQLenPdf::126                    0                       # What write queue length does an incoming req see
system.mem_ctrls0.wrQLenPdf::127                    0                       # What write queue length does an incoming req see
system.mem_ctrls0.bytesPerActivate::samples     14508850                       # Bytes accessed per row activation
system.mem_ctrls0.bytesPerActivate::mean   143.757449                       # Bytes accessed per row activation
system.mem_ctrls0.bytesPerActivate::gmean   110.429580                       # Bytes accessed per row activation
system.mem_ctrls0.bytesPerActivate::stdev   140.759655                       # Bytes accessed per row activation
system.mem_ctrls0.bytesPerActivate::0-127      7256252     50.01%     50.01% # Bytes accessed per row activation
system.mem_ctrls0.bytesPerActivate::128-255      5008513     34.52%     84.53% # Bytes accessed per row activation
system.mem_ctrls0.bytesPerActivate::256-383      1292401      8.91%     93.44% # Bytes accessed per row activation
system.mem_ctrls0.bytesPerActivate::384-511       505509      3.48%     96.92% # Bytes accessed per row activation
system.mem_ctrls0.bytesPerActivate::512-639       144120      0.99%     97.92% # Bytes accessed per row activation
system.mem_ctrls0.bytesPerActivate::640-767       116026      0.80%     98.72% # Bytes accessed per row activation
system.mem_ctrls0.bytesPerActivate::768-895        44325      0.31%     99.02% # Bytes accessed per row activation
system.mem_ctrls0.bytesPerActivate::896-1023         8918      0.06%     99.08% # Bytes accessed per row activation
system.mem_ctrls0.bytesPerActivate::1024-1151       132786      0.92%    100.00% # Bytes accessed per row activation
system.mem_ctrls0.bytesPerActivate::total     14508850                       # Bytes accessed per row activation
system.mem_ctrls0.rdPerTurnAround::samples       679211                       # Reads before turning the bus around for writes
system.mem_ctrls0.rdPerTurnAround::mean     31.415001                       # Reads before turning the bus around for writes
system.mem_ctrls0.rdPerTurnAround::gmean    21.374386                       # Reads before turning the bus around for writes
system.mem_ctrls0.rdPerTurnAround::stdev  7854.196750                       # Reads before turning the bus around for writes
system.mem_ctrls0.rdPerTurnAround::0-131071       679210    100.00%    100.00% # Reads before turning the bus around for writes
system.mem_ctrls0.rdPerTurnAround::6.42253e+06-6.5536e+06            1      0.00%    100.00% # Reads before turning the bus around for writes
system.mem_ctrls0.rdPerTurnAround::total       679211                       # Reads before turning the bus around for writes
system.mem_ctrls0.wrPerTurnAround::samples       679211                       # Writes before turning the bus around for reads
system.mem_ctrls0.wrPerTurnAround::mean     16.567040                       # Writes before turning the bus around for reads
system.mem_ctrls0.wrPerTurnAround::gmean    16.525615                       # Writes before turning the bus around for reads
system.mem_ctrls0.wrPerTurnAround::stdev     1.229956                       # Writes before turning the bus around for reads
system.mem_ctrls0.wrPerTurnAround::16          540768     79.62%     79.62% # Writes before turning the bus around for reads
system.mem_ctrls0.wrPerTurnAround::17           10897      1.60%     81.22% # Writes before turning the bus around for reads
system.mem_ctrls0.wrPerTurnAround::18           52767      7.77%     88.99% # Writes before turning the bus around for reads
system.mem_ctrls0.wrPerTurnAround::19           44277      6.52%     95.51% # Writes before turning the bus around for reads
system.mem_ctrls0.wrPerTurnAround::20           20821      3.07%     98.57% # Writes before turning the bus around for reads
system.mem_ctrls0.wrPerTurnAround::21            6891      1.01%     99.59% # Writes before turning the bus around for reads
system.mem_ctrls0.wrPerTurnAround::22            1880      0.28%     99.87% # Writes before turning the bus around for reads
system.mem_ctrls0.wrPerTurnAround::23             579      0.09%     99.95% # Writes before turning the bus around for reads
system.mem_ctrls0.wrPerTurnAround::24             215      0.03%     99.98% # Writes before turning the bus around for reads
system.mem_ctrls0.wrPerTurnAround::25              82      0.01%     99.99% # Writes before turning the bus around for reads
system.mem_ctrls0.wrPerTurnAround::26              28      0.00%    100.00% # Writes before turning the bus around for reads
system.mem_ctrls0.wrPerTurnAround::27               4      0.00%    100.00% # Writes before turning the bus around for reads
system.mem_ctrls0.wrPerTurnAround::28               2      0.00%    100.00% # Writes before turning the bus around for reads
system.mem_ctrls0.wrPerTurnAround::total       679211                       # Writes before turning the bus around for reads
system.mem_ctrls0.masterReadBytes::.switch_cpus_10.inst         9856                       # Per-master bytes read from memory
system.mem_ctrls0.masterReadBytes::.switch_cpus_10.data    341133888                       # Per-master bytes read from memory
system.mem_ctrls0.masterReadBytes::.switch_cpus_11.inst         9792                       # Per-master bytes read from memory
system.mem_ctrls0.masterReadBytes::.switch_cpus_11.data    341228608                       # Per-master bytes read from memory
system.mem_ctrls0.masterReadBytes::.switch_cpus_12.inst        10368                       # Per-master bytes read from memory
system.mem_ctrls0.masterReadBytes::.switch_cpus_12.data    341338944                       # Per-master bytes read from memory
system.mem_ctrls0.masterReadBytes::.switch_cpus_13.inst         9664                       # Per-master bytes read from memory
system.mem_ctrls0.masterReadBytes::.switch_cpus_13.data    341854912                       # Per-master bytes read from memory
system.mem_ctrls0.masterWriteBytes::.writebacks    720161024                       # Per-master bytes write to memory
system.mem_ctrls0.masterReadRate::.switch_cpus_10.inst 11650.472553396390                       # Per-master bytes read from memory rate (Bytes/sec)
system.mem_ctrls0.masterReadRate::.switch_cpus_10.data 403243810.793161332607                       # Per-master bytes read from memory rate (Bytes/sec)
system.mem_ctrls0.masterReadRate::.switch_cpus_11.inst 11574.820134218493                       # Per-master bytes read from memory rate (Bytes/sec)
system.mem_ctrls0.masterReadRate::.switch_cpus_11.data 403355776.373544633389                       # Per-master bytes read from memory rate (Bytes/sec)
system.mem_ctrls0.masterReadRate::.switch_cpus_12.inst 12255.691906819580                       # Per-master bytes read from memory rate (Bytes/sec)
system.mem_ctrls0.masterReadRate::.switch_cpus_12.data 403486201.144207358360                       # Per-master bytes read from memory rate (Bytes/sec)
system.mem_ctrls0.masterReadRate::.switch_cpus_13.inst 11423.515295862695                       # Per-master bytes read from memory rate (Bytes/sec)
system.mem_ctrls0.masterReadRate::.switch_cpus_13.data 404096110.947619557381                       # Per-master bytes read from memory rate (Bytes/sec)
system.mem_ctrls0.masterWriteRate::.writebacks 851280057.238011360168                       # Per-master bytes write to memory rate (Bytes/sec)
system.mem_ctrls0.masterReadAccesses::.switch_cpus_10.inst          154                       # Per-master read serviced memory accesses
system.mem_ctrls0.masterReadAccesses::.switch_cpus_10.data      5330218                       # Per-master read serviced memory accesses
system.mem_ctrls0.masterReadAccesses::.switch_cpus_11.inst          153                       # Per-master read serviced memory accesses
system.mem_ctrls0.masterReadAccesses::.switch_cpus_11.data      5331697                       # Per-master read serviced memory accesses
system.mem_ctrls0.masterReadAccesses::.switch_cpus_12.inst          162                       # Per-master read serviced memory accesses
system.mem_ctrls0.masterReadAccesses::.switch_cpus_12.data      5333421                       # Per-master read serviced memory accesses
system.mem_ctrls0.masterReadAccesses::.switch_cpus_13.inst          151                       # Per-master read serviced memory accesses
system.mem_ctrls0.masterReadAccesses::.switch_cpus_13.data      5341483                       # Per-master read serviced memory accesses
system.mem_ctrls0.masterWriteAccesses::.writebacks     11252579                       # Per-master write serviced memory accesses
system.mem_ctrls0.masterReadTotalLat::.switch_cpus_10.inst      8104989                       # Per-master read total memory access latency
system.mem_ctrls0.masterReadTotalLat::.switch_cpus_10.data 274191168492                       # Per-master read total memory access latency
system.mem_ctrls0.masterReadTotalLat::.switch_cpus_11.inst      8215020                       # Per-master read total memory access latency
system.mem_ctrls0.masterReadTotalLat::.switch_cpus_11.data 271789059266                       # Per-master read total memory access latency
system.mem_ctrls0.masterReadTotalLat::.switch_cpus_12.inst      7185759                       # Per-master read total memory access latency
system.mem_ctrls0.masterReadTotalLat::.switch_cpus_12.data 271084161982                       # Per-master read total memory access latency
system.mem_ctrls0.masterReadTotalLat::.switch_cpus_13.inst      7490190                       # Per-master read total memory access latency
system.mem_ctrls0.masterReadTotalLat::.switch_cpus_13.data 270986321629                       # Per-master read total memory access latency
system.mem_ctrls0.masterWriteTotalLat::.writebacks 47607471445113                       # Per-master write total memory access latency
system.mem_ctrls0.masterReadAvgLat::.switch_cpus_10.inst     52629.80                       # Per-master read average memory access latency
system.mem_ctrls0.masterReadAvgLat::.switch_cpus_10.data     51440.89                       # Per-master read average memory access latency
system.mem_ctrls0.masterReadAvgLat::.switch_cpus_11.inst     53692.94                       # Per-master read average memory access latency
system.mem_ctrls0.masterReadAvgLat::.switch_cpus_11.data     50976.09                       # Per-master read average memory access latency
system.mem_ctrls0.masterReadAvgLat::.switch_cpus_12.inst     44356.54                       # Per-master read average memory access latency
system.mem_ctrls0.masterReadAvgLat::.switch_cpus_12.data     50827.44                       # Per-master read average memory access latency
system.mem_ctrls0.masterReadAvgLat::.switch_cpus_13.inst     49603.91                       # Per-master read average memory access latency
system.mem_ctrls0.masterReadAvgLat::.switch_cpus_13.data     50732.41                       # Per-master read average memory access latency
system.mem_ctrls0.masterWriteAvgLat::.writebacks   4230805.35                       # Per-master write average memory access latency
system.mem_ctrls0.totQLat                706995064647                       # Total ticks spent queuing
system.mem_ctrls0.totMemAccLat           1088081707327                       # Total ticks spent from burst creation until serviced by the DRAM
system.mem_ctrls0.totBusLat               80228766880                       # Total ticks spent in databus transfers
system.mem_ctrls0.avgQLat                    33134.02                       # Average queueing delay per DRAM burst
system.mem_ctrls0.avgBusLat                   3760.00                       # Average bus latency per DRAM burst
system.mem_ctrls0.avgMemAccLat               50994.02                       # Average memory access latency per DRAM burst
system.mem_ctrls0.avgRdBW                     1614.23                       # Average DRAM read bandwidth in MiByte/s
system.mem_ctrls0.avgWrBW                      851.28                       # Average achieved write bandwidth in MiByte/s
system.mem_ctrls0.avgRdBWSys                  1614.23                       # Average system read bandwidth in MiByte/s
system.mem_ctrls0.avgWrBWSys                   851.28                       # Average system write bandwidth in MiByte/s
system.mem_ctrls0.peakBW                     17021.00                       # Theoretical peak bandwidth in MiByte/s
system.mem_ctrls0.busUtil                       14.49                       # Data bus utilization in percentage
system.mem_ctrls0.busUtilRead                    9.48                       # Data bus utilization in percentage for reads
system.mem_ctrls0.busUtilWrite                   5.00                       # Data bus utilization in percentage for writes
system.mem_ctrls0.avgRdQLen                      2.46                       # Average read queue length when enqueuing
system.mem_ctrls0.avgWrQLen                     56.59                       # Average write queue length when enqueuing
system.mem_ctrls0.readRowHits                10637293                       # Number of row buffer hits during reads
system.mem_ctrls0.writeRowHits                7443796                       # Number of row buffer hits during writes
system.mem_ctrls0.readRowHitRate                49.85                       # Row buffer hit rate for reads
system.mem_ctrls0.writeRowHitRate               66.15                       # Row buffer hit rate for writes
system.mem_ctrls0.avgGap                     25958.08                       # Average gap between requests
system.mem_ctrls0.pageHitRate                   55.48                       # Row buffer hit rate, read and write combined
system.mem_ctrls0_0.actEnergy                       0                       # Energy for activate commands per rank (pJ)
system.mem_ctrls0_0.preEnergy            18877640886.719730                       # Energy for precharge commands per rank (pJ)
system.mem_ctrls0_0.readEnergy           28392467481.600189                       # Energy for read commands per rank (pJ)
system.mem_ctrls0_0.writeEnergy           19025348832                       # Energy for write commands per rank (pJ)
system.mem_ctrls0_0.refreshEnergy        47200200150.937202                       # Energy for refresh commands per rank (pJ)
system.mem_ctrls0_0.actBackEnergy        219883697184.475830                       # Energy for active background per rank (pJ)
system.mem_ctrls0_0.preBackEnergy        3197488105.724884                       # Energy for precharge background per rank (pJ)
system.mem_ctrls0_0.actPowerDownEnergy   150201169635.841278                       # Energy for active power-down per rank (pJ)
system.mem_ctrls0_0.prePowerDownEnergy   1447179782.396493                       # Energy for precharge power-down per rank (pJ)
system.mem_ctrls0_0.selfRefreshEnergy    19500797143.439983                       # Energy for self refresh per rank (pJ)
system.mem_ctrls0_0.totalEnergy          507731816767.027039                       # Total energy per rank (pJ)
system.mem_ctrls0_0.averagePower           600.174066                       # Core power per rank (mW)
system.mem_ctrls0_0.totalIdleTime        464083382392                       # Total Idle time Per DRAM Rank
system.mem_ctrls0_0.memoryStateTime::IDLE    603948078                       # Time in different power states
system.mem_ctrls0_0.memoryStateTime::REF  26010660000                       # Time in different power states
system.mem_ctrls0_0.memoryStateTime::SREF  66903224240                       # Time in different power states
system.mem_ctrls0_0.memoryStateTime::PRE_PDN   6029922212                       # Time in different power states
system.mem_ctrls0_0.memoryStateTime::ACT 355276103910                       # Time in different power states
system.mem_ctrls0_0.memoryStateTime::ACT_PDN 391150410400                       # Time in different power states
system.mem_ctrls0_1.actEnergy                       0                       # Energy for activate commands per rank (pJ)
system.mem_ctrls0_1.preEnergy            18927776775.600067                       # Energy for precharge commands per rank (pJ)
system.mem_ctrls0_1.readEnergy           28409496807.360420                       # Energy for read commands per rank (pJ)
system.mem_ctrls0_1.writeEnergy           19053165312                       # Energy for write commands per rank (pJ)
system.mem_ctrls0_1.refreshEnergy        47183215042.777290                       # Energy for refresh commands per rank (pJ)
system.mem_ctrls0_1.actBackEnergy        220340731403.519104                       # Energy for active background per rank (pJ)
system.mem_ctrls0_1.preBackEnergy        3171850109.564319                       # Energy for precharge background per rank (pJ)
system.mem_ctrls0_1.actPowerDownEnergy   150211244390.399841                       # Energy for active power-down per rank (pJ)
system.mem_ctrls0_1.prePowerDownEnergy   1203787387.196035                       # Energy for precharge power-down per rank (pJ)
system.mem_ctrls0_1.selfRefreshEnergy    19583342683.199974                       # Energy for self refresh per rank (pJ)
system.mem_ctrls0_1.totalEnergy          508090555441.743835                       # Total energy per rank (pJ)
system.mem_ctrls0_1.averagePower           600.598120                       # Core power per rank (mW)
system.mem_ctrls0_1.totalIdleTime        463368227697                       # Total Idle time Per DRAM Rank
system.mem_ctrls0_1.memoryStateTime::IDLE    584172640                       # Time in different power states
system.mem_ctrls0_1.memoryStateTime::REF  26001300000                       # Time in different power states
system.mem_ctrls0_1.memoryStateTime::SREF  67177216920                       # Time in different power states
system.mem_ctrls0_1.memoryStateTime::PRE_PDN   5015885716                       # Time in different power states
system.mem_ctrls0_1.memoryStateTime::ACT 356020568503                       # Time in different power states
system.mem_ctrls0_1.memoryStateTime::ACT_PDN 391175125061                       # Time in different power states
system.mem_ctrls1.pwrStateResidencyTicks::UNDEFINED 904665098000                       # Cumulative time (in ticks) in various power states
system.mem_ctrls1.bytes_read::.switch_cpus_10.inst        10176                       # Number of bytes read from this memory
system.mem_ctrls1.bytes_read::.switch_cpus_10.data    341135552                       # Number of bytes read from this memory
system.mem_ctrls1.bytes_read::.switch_cpus_11.inst         9920                       # Number of bytes read from this memory
system.mem_ctrls1.bytes_read::.switch_cpus_11.data    341232768                       # Number of bytes read from this memory
system.mem_ctrls1.bytes_read::.switch_cpus_12.inst         9216                       # Number of bytes read from this memory
system.mem_ctrls1.bytes_read::.switch_cpus_12.data    341339072                       # Number of bytes read from this memory
system.mem_ctrls1.bytes_read::.switch_cpus_13.inst        10048                       # Number of bytes read from this memory
system.mem_ctrls1.bytes_read::.switch_cpus_13.data    341852480                       # Number of bytes read from this memory
system.mem_ctrls1.bytes_read::total        1365599232                       # Number of bytes read from this memory
system.mem_ctrls1.bytes_inst_read::.switch_cpus_10.inst        10176                       # Number of instructions bytes read from this memory
system.mem_ctrls1.bytes_inst_read::.switch_cpus_11.inst         9920                       # Number of instructions bytes read from this memory
system.mem_ctrls1.bytes_inst_read::.switch_cpus_12.inst         9216                       # Number of instructions bytes read from this memory
system.mem_ctrls1.bytes_inst_read::.switch_cpus_13.inst        10048                       # Number of instructions bytes read from this memory
system.mem_ctrls1.bytes_inst_read::total        39360                       # Number of instructions bytes read from this memory
system.mem_ctrls1.bytes_written::.writebacks    720167040                       # Number of bytes written to this memory
system.mem_ctrls1.bytes_written::total      720167040                       # Number of bytes written to this memory
system.mem_ctrls1.num_reads::.switch_cpus_10.inst          159                       # Number of read requests responded to by this memory
system.mem_ctrls1.num_reads::.switch_cpus_10.data      5330243                       # Number of read requests responded to by this memory
system.mem_ctrls1.num_reads::.switch_cpus_11.inst          155                       # Number of read requests responded to by this memory
system.mem_ctrls1.num_reads::.switch_cpus_11.data      5331762                       # Number of read requests responded to by this memory
system.mem_ctrls1.num_reads::.switch_cpus_12.inst          144                       # Number of read requests responded to by this memory
system.mem_ctrls1.num_reads::.switch_cpus_12.data      5333423                       # Number of read requests responded to by this memory
system.mem_ctrls1.num_reads::.switch_cpus_13.inst          157                       # Number of read requests responded to by this memory
system.mem_ctrls1.num_reads::.switch_cpus_13.data      5341445                       # Number of read requests responded to by this memory
system.mem_ctrls1.num_reads::total           21337488                       # Number of read requests responded to by this memory
system.mem_ctrls1.num_writes::.writebacks     11252610                       # Number of write requests responded to by this memory
system.mem_ctrls1.num_writes::total          11252610                       # Number of write requests responded to by this memory
system.mem_ctrls1.bw_read::.switch_cpus_10.inst        12029                       # Total read bandwidth from this memory (bytes/s)
system.mem_ctrls1.bw_read::.switch_cpus_10.data    403245778                       # Total read bandwidth from this memory (bytes/s)
system.mem_ctrls1.bw_read::.switch_cpus_11.inst        11726                       # Total read bandwidth from this memory (bytes/s)
system.mem_ctrls1.bw_read::.switch_cpus_11.data    403360694                       # Total read bandwidth from this memory (bytes/s)
system.mem_ctrls1.bw_read::.switch_cpus_12.inst        10894                       # Total read bandwidth from this memory (bytes/s)
system.mem_ctrls1.bw_read::.switch_cpus_12.data    403486352                       # Total read bandwidth from this memory (bytes/s)
system.mem_ctrls1.bw_read::.switch_cpus_13.inst        11877                       # Total read bandwidth from this memory (bytes/s)
system.mem_ctrls1.bw_read::.switch_cpus_13.data    404093236                       # Total read bandwidth from this memory (bytes/s)
system.mem_ctrls1.bw_read::total           1614232586                       # Total read bandwidth from this memory (bytes/s)
system.mem_ctrls1.bw_inst_read::.switch_cpus_10.inst        12029                       # Instruction read bandwidth from this memory (bytes/s)
system.mem_ctrls1.bw_inst_read::.switch_cpus_11.inst        11726                       # Instruction read bandwidth from this memory (bytes/s)
system.mem_ctrls1.bw_inst_read::.switch_cpus_12.inst        10894                       # Instruction read bandwidth from this memory (bytes/s)
system.mem_ctrls1.bw_inst_read::.switch_cpus_13.inst        11877                       # Instruction read bandwidth from this memory (bytes/s)
system.mem_ctrls1.bw_inst_read::total           46526                       # Instruction read bandwidth from this memory (bytes/s)
system.mem_ctrls1.bw_write::.writebacks     851287169                       # Write bandwidth from this memory (bytes/s)
system.mem_ctrls1.bw_write::total           851287169                       # Write bandwidth from this memory (bytes/s)
system.mem_ctrls1.bw_total::.writebacks     851287169                       # Total bandwidth to/from this memory (bytes/s)
system.mem_ctrls1.bw_total::.switch_cpus_10.inst        12029                       # Total bandwidth to/from this memory (bytes/s)
system.mem_ctrls1.bw_total::.switch_cpus_10.data    403245778                       # Total bandwidth to/from this memory (bytes/s)
system.mem_ctrls1.bw_total::.switch_cpus_11.inst        11726                       # Total bandwidth to/from this memory (bytes/s)
system.mem_ctrls1.bw_total::.switch_cpus_11.data    403360694                       # Total bandwidth to/from this memory (bytes/s)
system.mem_ctrls1.bw_total::.switch_cpus_12.inst        10894                       # Total bandwidth to/from this memory (bytes/s)
system.mem_ctrls1.bw_total::.switch_cpus_12.data    403486352                       # Total bandwidth to/from this memory (bytes/s)
system.mem_ctrls1.bw_total::.switch_cpus_13.inst        11877                       # Total bandwidth to/from this memory (bytes/s)
system.mem_ctrls1.bw_total::.switch_cpus_13.data    404093236                       # Total bandwidth to/from this memory (bytes/s)
system.mem_ctrls1.bw_total::total          2465519755                       # Total bandwidth to/from this memory (bytes/s)
system.mem_ctrls1.avgPriority_.writebacks::samples  11252610.00                       # Average QoS priority value for accepted requests
system.mem_ctrls1.avgPriority_.switch_cpus_10.inst::samples       159.00                       # Average QoS priority value for accepted requests
system.mem_ctrls1.avgPriority_.switch_cpus_10.data::samples   5330245.00                       # Average QoS priority value for accepted requests
system.mem_ctrls1.avgPriority_.switch_cpus_11.inst::samples       155.00                       # Average QoS priority value for accepted requests
system.mem_ctrls1.avgPriority_.switch_cpus_11.data::samples   5331762.00                       # Average QoS priority value for accepted requests
system.mem_ctrls1.avgPriority_.switch_cpus_12.inst::samples       144.00                       # Average QoS priority value for accepted requests
system.mem_ctrls1.avgPriority_.switch_cpus_12.data::samples   5333423.00                       # Average QoS priority value for accepted requests
system.mem_ctrls1.avgPriority_.switch_cpus_13.inst::samples       157.00                       # Average QoS priority value for accepted requests
system.mem_ctrls1.avgPriority_.switch_cpus_13.data::samples   5341445.00                       # Average QoS priority value for accepted requests
system.mem_ctrls1.priorityMinLatency     0.000000017860                       # per QoS priority minimum request to response latency (s)
system.mem_ctrls1.priorityMaxLatency     0.329106830540                       # per QoS priority maximum request to response latency (s)
system.mem_ctrls1.numReadWriteTurnArounds       679213                       # Number of turnarounds from READ to WRITE
system.mem_ctrls1.numWriteReadTurnArounds       679213                       # Number of turnarounds from WRITE to READ
system.mem_ctrls1.numStayReadState           47156510                       # Number of times bus staying in READ state
system.mem_ctrls1.numStayWriteState          10587642                       # Number of times bus staying in WRITE state
system.mem_ctrls1.readReqs                   21337490                       # Number of read requests accepted
system.mem_ctrls1.writeReqs                  11252610                       # Number of write requests accepted
system.mem_ctrls1.readBursts                 21337490                       # Number of DRAM read bursts, including those serviced by the write queue
system.mem_ctrls1.writeBursts                11252610                       # Number of DRAM write bursts, including those merged in the write queue
system.mem_ctrls1.bytesReadDRAM            1365599360                       # Total number of bytes read from DRAM
system.mem_ctrls1.bytesReadWrQ                      0                       # Total number of bytes read from write queue
system.mem_ctrls1.bytesWritten              720163584                       # Total number of bytes written to DRAM
system.mem_ctrls1.bytesReadSys             1365599360                       # Total read bytes from the system interface side
system.mem_ctrls1.bytesWrittenSys           720167040                       # Total written bytes from the system interface side
system.mem_ctrls1.servicedByWrQ                     0                       # Number of DRAM read bursts serviced by the write queue
system.mem_ctrls1.mergedWrBursts                    0                       # Number of DRAM write bursts merged with an existing one
system.mem_ctrls1.neitherReadNorWriteReqs            0                       # Number of requests that are neither read nor write
system.mem_ctrls1.perBankRdBursts::0           667005                       # Per bank write bursts
system.mem_ctrls1.perBankRdBursts::1           666820                       # Per bank write bursts
system.mem_ctrls1.perBankRdBursts::2           666681                       # Per bank write bursts
system.mem_ctrls1.perBankRdBursts::3           666622                       # Per bank write bursts
system.mem_ctrls1.perBankRdBursts::4           666724                       # Per bank write bursts
system.mem_ctrls1.perBankRdBursts::5           666616                       # Per bank write bursts
system.mem_ctrls1.perBankRdBursts::6           666692                       # Per bank write bursts
system.mem_ctrls1.perBankRdBursts::7           666499                       # Per bank write bursts
system.mem_ctrls1.perBankRdBursts::8           666382                       # Per bank write bursts
system.mem_ctrls1.perBankRdBursts::9           666361                       # Per bank write bursts
system.mem_ctrls1.perBankRdBursts::10          666447                       # Per bank write bursts
system.mem_ctrls1.perBankRdBursts::11          666460                       # Per bank write bursts
system.mem_ctrls1.perBankRdBursts::12          666465                       # Per bank write bursts
system.mem_ctrls1.perBankRdBursts::13          666419                       # Per bank write bursts
system.mem_ctrls1.perBankRdBursts::14          666620                       # Per bank write bursts
system.mem_ctrls1.perBankRdBursts::15          666715                       # Per bank write bursts
system.mem_ctrls1.perBankRdBursts::16          666723                       # Per bank write bursts
system.mem_ctrls1.perBankRdBursts::17          666850                       # Per bank write bursts
system.mem_ctrls1.perBankRdBursts::18          666914                       # Per bank write bursts
system.mem_ctrls1.perBankRdBursts::19          666829                       # Per bank write bursts
system.mem_ctrls1.perBankRdBursts::20          666744                       # Per bank write bursts
system.mem_ctrls1.perBankRdBursts::21          666967                       # Per bank write bursts
system.mem_ctrls1.perBankRdBursts::22          666884                       # Per bank write bursts
system.mem_ctrls1.perBankRdBursts::23          666987                       # Per bank write bursts
system.mem_ctrls1.perBankRdBursts::24          667048                       # Per bank write bursts
system.mem_ctrls1.perBankRdBursts::25          667107                       # Per bank write bursts
system.mem_ctrls1.perBankRdBursts::26          667096                       # Per bank write bursts
system.mem_ctrls1.perBankRdBursts::27          667335                       # Per bank write bursts
system.mem_ctrls1.perBankRdBursts::28          667218                       # Per bank write bursts
system.mem_ctrls1.perBankRdBursts::29          667168                       # Per bank write bursts
system.mem_ctrls1.perBankRdBursts::30          667043                       # Per bank write bursts
system.mem_ctrls1.perBankRdBursts::31          667049                       # Per bank write bursts
system.mem_ctrls1.perBankWrBursts::0           351599                       # Per bank write bursts
system.mem_ctrls1.perBankWrBursts::1           351440                       # Per bank write bursts
system.mem_ctrls1.perBankWrBursts::2           351367                       # Per bank write bursts
system.mem_ctrls1.perBankWrBursts::3           351362                       # Per bank write bursts
system.mem_ctrls1.perBankWrBursts::4           351359                       # Per bank write bursts
system.mem_ctrls1.perBankWrBursts::5           351339                       # Per bank write bursts
system.mem_ctrls1.perBankWrBursts::6           351344                       # Per bank write bursts
system.mem_ctrls1.perBankWrBursts::7           351296                       # Per bank write bursts
system.mem_ctrls1.perBankWrBursts::8           351234                       # Per bank write bursts
system.mem_ctrls1.perBankWrBursts::9           351167                       # Per bank write bursts
system.mem_ctrls1.perBankWrBursts::10          351191                       # Per bank write bursts
system.mem_ctrls1.perBankWrBursts::11          351220                       # Per bank write bursts
system.mem_ctrls1.perBankWrBursts::12          351381                       # Per bank write bursts
system.mem_ctrls1.perBankWrBursts::13          351440                       # Per bank write bursts
system.mem_ctrls1.perBankWrBursts::14          351675                       # Per bank write bursts
system.mem_ctrls1.perBankWrBursts::15          351743                       # Per bank write bursts
system.mem_ctrls1.perBankWrBursts::16          351886                       # Per bank write bursts
system.mem_ctrls1.perBankWrBursts::17          352105                       # Per bank write bursts
system.mem_ctrls1.perBankWrBursts::18          352176                       # Per bank write bursts
system.mem_ctrls1.perBankWrBursts::19          352196                       # Per bank write bursts
system.mem_ctrls1.perBankWrBursts::20          352103                       # Per bank write bursts
system.mem_ctrls1.perBankWrBursts::21          352163                       # Per bank write bursts
system.mem_ctrls1.perBankWrBursts::22          352027                       # Per bank write bursts
system.mem_ctrls1.perBankWrBursts::23          351941                       # Per bank write bursts
system.mem_ctrls1.perBankWrBursts::24          351936                       # Per bank write bursts
system.mem_ctrls1.perBankWrBursts::25          351780                       # Per bank write bursts
system.mem_ctrls1.perBankWrBursts::26          351723                       # Per bank write bursts
system.mem_ctrls1.perBankWrBursts::27          351790                       # Per bank write bursts
system.mem_ctrls1.perBankWrBursts::28          351681                       # Per bank write bursts
system.mem_ctrls1.perBankWrBursts::29          351648                       # Per bank write bursts
system.mem_ctrls1.perBankWrBursts::30          351591                       # Per bank write bursts
[...]
system.switch_cpus_13.iew.memOrderViolationEvents         2502                       # Number of memory order violations
system.switch_cpus_13.iew.predictedTakenIncorrect        26679                       # Number of branches that were predicted taken incorrectly
system.switch_cpus_13.iew.predictedNotTakenIncorrect        58050                       # Number of branches that were predicted not taken incorrectly
system.switch_cpus_13.iew.branchMispredicts        84729                       # Number of branch mispredicts detected at execute
system.switch_cpus_13.iew.iewExecutedInsts    775958428                       # Number of executed instructions
system.switch_cpus_13.iew.iewExecLoadInsts    125626518                       # Number of load instructions executed
system.switch_cpus_13.iew.iewExecSquashedInsts       240774                       # Number of squashed instructions skipped in execute
system.switch_cpus_13.iew.exec_swp                  0                       # number of swp insts executed
system.switch_cpus_13.iew.exec_nop                  0                       # number of nop insts executed
system.switch_cpus_13.iew.exec_refs         179301858                       # number of memory reference insts executed
system.switch_cpus_13.iew.exec_branches      58558537                       # Number of branches executed
system.switch_cpus_13.iew.exec_stores        53675340                       # Number of stores executed
system.switch_cpus_13.iew.exec_rate          0.229309                       # Inst execution rate
system.switch_cpus_13.iew.wb_sent           775398965                       # cumulative count of insts sent to commit
system.switch_cpus_13.iew.wb_count          775396561                       # cumulative count of insts written-back
system.switch_cpus_13.iew.wb_producers      576690336                       # num instructions producing a value
system.switch_cpus_13.iew.wb_consumers      982270974                       # num instructions consuming a value
system.switch_cpus_13.iew.wb_rate            0.229143                       # insts written-back per cycle
system.switch_cpus_13.iew.wb_fanout          0.587099                       # average fanout of values written-back
system.switch_cpus_13.commit.commitSquashedInsts      2575279                       # The number of squashed insts skipped by commit
system.switch_cpus_13.commit.commitNonSpecStalls          257                       # The number of times commit has been forced to stall to communicate backwards
system.switch_cpus_13.commit.branchMispredicts        83811                       # The number of times a branch was mispredicted
system.switch_cpus_13.commit.committed_per_cycle::samples   3383484936                       # Number of insts commited each cycle
system.switch_cpus_13.commit.committed_per_cycle::mean     0.228755                       # Number of insts commited each cycle
system.switch_cpus_13.commit.committed_per_cycle::stdev     1.091235                       # Number of insts commited each cycle
system.switch_cpus_13.commit.committed_per_cycle::underflows            0      0.00%      0.00% # Number of insts commited each cycle
system.switch_cpus_13.commit.committed_per_cycle::0   3148350854     93.05%     93.05% # Number of insts commited each cycle
system.switch_cpus_13.commit.committed_per_cycle::1     97463399      2.88%     95.93% # Number of insts commited each cycle
system.switch_cpus_13.commit.committed_per_cycle::2     24424189      0.72%     96.65% # Number of insts commited each cycle
system.switch_cpus_13.commit.committed_per_cycle::3     36113568      1.07%     97.72% # Number of insts commited each cycle
system.switch_cpus_13.commit.committed_per_cycle::4      9982372      0.30%     98.02% # Number of insts commited each cycle
system.switch_cpus_13.commit.committed_per_cycle::5     13801730      0.41%     98.42% # Number of insts commited each cycle
system.switch_cpus_13.commit.committed_per_cycle::6      6350441      0.19%     98.61% # Number of insts commited each cycle
system.switch_cpus_13.commit.committed_per_cycle::7      3691248      0.11%     98.72% # Number of insts commited each cycle
system.switch_cpus_13.commit.committed_per_cycle::8     43307135      1.28%    100.00% # Number of insts commited each cycle
system.switch_cpus_13.commit.committed_per_cycle::overflows            0      0.00%    100.00% # Number of insts commited each cycle
system.switch_cpus_13.commit.committed_per_cycle::min_value            0                       # Number of insts commited each cycle
system.switch_cpus_13.commit.committed_per_cycle::max_value            8                       # Number of insts commited each cycle
system.switch_cpus_13.commit.committed_per_cycle::total   3383484936                       # Number of insts commited each cycle
system.switch_cpus_13.commit.committedInsts    500000001                       # Number of instructions committed
system.switch_cpus_13.commit.committedOps    773989081                       # Number of ops (including micro ops) committed
system.switch_cpus_13.commit.swp_count              0                       # Number of s/w prefetches committed
system.switch_cpus_13.commit.refs           178525967                       # Number of memory references committed
system.switch_cpus_13.commit.loads          124900079                       # Number of loads committed
system.switch_cpus_13.commit.membars                0                       # Number of memory barriers committed
system.switch_cpus_13.commit.branches        58434526                       # Number of branches committed
system.switch_cpus_13.commit.vec_insts              0                       # Number of committed Vector instructions.
system.switch_cpus_13.commit.fp_insts       385349274                       # Number of committed floating point instructions.
system.switch_cpus_13.commit.int_insts      506163784                       # Number of committed integer instructions.
system.switch_cpus_13.commit.function_calls      1999803                       # Number of function calls committed.
system.switch_cpus_13.commit.op_class_0::No_OpClass        20156      0.00%      0.00% # Class of committed instruction
system.switch_cpus_13.commit.op_class_0::IntAlu    387031191     50.00%     50.01% # Class of committed instruction
system.switch_cpus_13.commit.op_class_0::IntMult           63      0.00%     50.01% # Class of committed instruction
system.switch_cpus_13.commit.op_class_0::IntDiv           42      0.00%     50.01% # Class of committed instruction
system.switch_cpus_13.commit.op_class_0::FloatAdd            9      0.00%     50.01% # Class of committed instruction
system.switch_cpus_13.commit.op_class_0::FloatCmp            0      0.00%     50.01% # Class of committed instruction
system.switch_cpus_13.commit.op_class_0::FloatCvt            0      0.00%     50.01% # Class of committed instruction
system.switch_cpus_13.commit.op_class_0::FloatMult            0      0.00%     50.01% # Class of committed instruction
system.switch_cpus_13.commit.op_class_0::FloatMultAcc            0      0.00%     50.01% # Class of committed instruction
system.switch_cpus_13.commit.op_class_0::FloatDiv            0      0.00%     50.01% # Class of committed instruction
system.switch_cpus_13.commit.op_class_0::FloatMisc            0      0.00%     50.01% # Class of committed instruction
system.switch_cpus_13.commit.op_class_0::FloatSqrt            0      0.00%     50.01% # Class of committed instruction
system.switch_cpus_13.commit.op_class_0::SimdAdd            0      0.00%     50.01% # Class of committed instruction
system.switch_cpus_13.commit.op_class_0::SimdAddAcc            0      0.00%     50.01% # Class of committed instruction
system.switch_cpus_13.commit.op_class_0::SimdAlu      2525660      0.33%     50.33% # Class of committed instruction
system.switch_cpus_13.commit.op_class_0::SimdCmp            0      0.00%     50.33% # Class of committed instruction
system.switch_cpus_13.commit.op_class_0::SimdCvt           58      0.00%     50.33% # Class of committed instruction
system.switch_cpus_13.commit.op_class_0::SimdMisc          107      0.00%     50.33% # Class of committed instruction
system.switch_cpus_13.commit.op_class_0::SimdMult            0      0.00%     50.33% # Class of committed instruction
system.switch_cpus_13.commit.op_class_0::SimdMultAcc            0      0.00%     50.33% # Class of committed instruction
system.switch_cpus_13.commit.op_class_0::SimdShift            0      0.00%     50.33% # Class of committed instruction
system.switch_cpus_13.commit.op_class_0::SimdShiftAcc            0      0.00%     50.33% # Class of committed instruction
system.switch_cpus_13.commit.op_class_0::SimdSqrt            0      0.00%     50.33% # Class of committed instruction
system.switch_cpus_13.commit.op_class_0::SimdFloatAdd    143452817     18.53%     68.87% # Class of committed instruction
system.switch_cpus_13.commit.op_class_0::SimdFloatAlu            0      0.00%     68.87% # Class of committed instruction
system.switch_cpus_13.commit.op_class_0::SimdFloatCmp      4974922      0.64%     69.51% # Class of committed instruction
system.switch_cpus_13.commit.op_class_0::SimdFloatCvt            2      0.00%     69.51% # Class of committed instruction
system.switch_cpus_13.commit.op_class_0::SimdFloatDiv      3081646      0.40%     69.91% # Class of committed instruction
system.switch_cpus_13.commit.op_class_0::SimdFloatMisc            0      0.00%     69.91% # Class of committed instruction
system.switch_cpus_13.commit.op_class_0::SimdFloatMult     54376439      7.03%     76.93% # Class of committed instruction
system.switch_cpus_13.commit.op_class_0::SimdFloatMultAcc            0      0.00%     76.93% # Class of committed instruction
system.switch_cpus_13.commit.op_class_0::SimdFloatSqrt            2      0.00%     76.93% # Class of committed instruction
system.switch_cpus_13.commit.op_class_0::SimdAes            0      0.00%     76.93% # Class of committed instruction
system.switch_cpus_13.commit.op_class_0::SimdAesMix            0      0.00%     76.93% # Class of committed instruction
system.switch_cpus_13.commit.op_class_0::SimdSha1Hash            0      0.00%     76.93% # Class of committed instruction
system.switch_cpus_13.commit.op_class_0::SimdSha1Hash2            0      0.00%     76.93% # Class of committed instruction
system.switch_cpus_13.commit.op_class_0::SimdSha256Hash            0      0.00%     76.93% # Class of committed instruction
system.switch_cpus_13.commit.op_class_0::SimdSha256Hash2            0      0.00%     76.93% # Class of committed instruction
system.switch_cpus_13.commit.op_class_0::SimdShaSigma2            0      0.00%     76.93% # Class of committed instruction
system.switch_cpus_13.commit.op_class_0::SimdShaSigma3            0      0.00%     76.93% # Class of committed instruction
system.switch_cpus_13.commit.op_class_0::MemRead     40229122      5.20%     82.13% # Class of committed instruction
system.switch_cpus_13.commit.op_class_0::MemWrite     18217307      2.35%     84.49% # Class of committed instruction
system.switch_cpus_13.commit.op_class_0::FloatMemRead     84670957     10.94%     95.43% # Class of committed instruction
system.switch_cpus_13.commit.op_class_0::FloatMemWrite     35408581      4.57%    100.00% # Class of committed instruction
system.switch_cpus_13.commit.op_class_0::IprAccess            0      0.00%    100.00% # Class of committed instruction
system.switch_cpus_13.commit.op_class_0::InstPrefetch            0      0.00%    100.00% # Class of committed instruction
system.switch_cpus_13.commit.op_class_0::total    773989081                       # Class of committed instruction
system.switch_cpus_13.commit.bw_lim_events     43307135                       # number cycles where commit BW limit reached
system.switch_cpus_13.rob.rob_reads        4116742161                       # The number of ROB reads
system.switch_cpus_13.rob.rob_writes       1553490750                       # The number of ROB writes
system.switch_cpus_13.timesIdled                  173                       # Number of times that the entire CPU went into an idle state and unscheduled itself
system.switch_cpus_13.idleCycles                50322                       # Total number of cycles that the CPU has spent unscheduled due to idling
system.switch_cpus_13.committedInsts        500000001                       # Number of Instructions Simulated
system.switch_cpus_13.committedOps          773989081                       # Number of Ops (including micro ops) Simulated
system.switch_cpus_13.cpi                    6.767794                       # CPI: Cycles Per Instruction
system.switch_cpus_13.cpi_total              6.767794                       # CPI: Total CPI of All Threads
system.switch_cpus_13.ipc                    0.147759                       # IPC: Instructions Per Cycle
system.switch_cpus_13.ipc_total              0.147759                       # IPC: Total IPC of All Threads
system.switch_cpus_13.int_regfile_reads     683193204                       # number of integer regfile reads
system.switch_cpus_13.int_regfile_writes    310203841                       # number of integer regfile writes
system.switch_cpus_13.fp_regfile_reads      772689384                       # number of floating regfile reads
system.switch_cpus_13.fp_regfile_writes     350404318                       # number of floating regfile writes
system.switch_cpus_13.cc_regfile_reads      295307918                       # number of cc regfile reads
system.switch_cpus_13.cc_regfile_writes     134734038                       # number of cc regfile writes
system.switch_cpus_13.misc_regfile_reads    304286613                       # number of misc regfile reads
system.tol3bus.snoop_filter.tot_requests     85350986                       # Total number of requests made to the snoop filter.
system.tol3bus.snoop_filter.hit_single_requests     42675429                       # Number of requests hitting in the snoop filter with a single holder of the requested data.
system.tol3bus.snoop_filter.hit_multi_requests            0                       # Number of requests hitting in the snoop filter with multiple (>1) holders of the requested data.
system.tol3bus.snoop_filter.tot_snoops           2471                       # Total number of snoops made to the snoop filter.
system.tol3bus.snoop_filter.hit_single_snoops         2471                       # Number of snoops hitting in the snoop filter with a single holder of the requested data.
system.tol3bus.snoop_filter.hit_multi_snoops            0                       # Number of snoops hitting in the snoop filter with multiple (>1) holders of the requested data.
system.tol3bus.pwrStateResidencyTicks::UNDEFINED 904665098000                       # Cumulative time (in ticks) in various power states
system.tol3bus.trans_dist::ReadResp          21095652                       # Transaction distribution
system.tol3bus.trans_dist::WritebackDirty     44981058                       # Transaction distribution
system.tol3bus.trans_dist::CleanEvict        40369365                       # Transaction distribution
system.tol3bus.trans_dist::UpgradeReq              12                       # Transaction distribution
system.tol3bus.trans_dist::UpgradeResp             12                       # Transaction distribution
system.tol3bus.trans_dist::ReadExReq         21579924                       # Transaction distribution
system.tol3bus.trans_dist::ReadExResp        21579921                       # Transaction distribution
system.tol3bus.trans_dist::ReadSharedReq     21095655                       # Transaction distribution
system.tol3bus.pkt_count_system.cpu0.l2cache.mem_side::system.l3.cpu_side     31982726                       # Packet count per connected master and slave (bytes)
system.tol3bus.pkt_count_system.cpu1.l2cache.mem_side::system.l3.cpu_side     31991759                       # Packet count per connected master and slave (bytes)
system.tol3bus.pkt_count_system.cpu2.l2cache.mem_side::system.l3.cpu_side     32001932                       # Packet count per connected master and slave (bytes)
system.tol3bus.pkt_count_system.cpu3.l2cache.mem_side::system.l3.cpu_side     32050154                       # Packet count per connected master and slave (bytes)
system.tol3bus.pkt_count::total             128026571                       # Packet count per connected master and slave (bytes)
system.tol3bus.pkt_size_system.cpu0.l2cache.mem_side::system.l3.cpu_side   1041525888                       # Cumulative packet size per connected master and slave (bytes)
system.tol3bus.pkt_size_system.cpu1.l2cache.mem_side::system.l3.cpu_side   1041868096                       # Cumulative packet size per connected master and slave (bytes)
system.tol3bus.pkt_size_system.cpu2.l2cache.mem_side::system.l3.cpu_side   1042244160                       # Cumulative packet size per connected master and slave (bytes)
system.tol3bus.pkt_size_system.cpu3.l2cache.mem_side::system.l3.cpu_side   1044054080                       # Cumulative packet size per connected master and slave (bytes)
system.tol3bus.pkt_size::total             4169692224                       # Cumulative packet size per connected master and slave (bytes)
system.tol3bus.snoops                        42675028                       # Total snoops (count)
system.tol3bus.snoopTraffic                1440332160                       # Total snoop traffic (bytes)
system.tol3bus.snoop_fanout::samples         85350619                       # Request fanout histogram
system.tol3bus.snoop_fanout::mean            0.000029                       # Request fanout histogram
system.tol3bus.snoop_fanout::stdev           0.005381                       # Request fanout histogram
system.tol3bus.snoop_fanout::underflows             0      0.00%      0.00% # Request fanout histogram
system.tol3bus.snoop_fanout::0               85348148    100.00%    100.00% # Request fanout histogram
system.tol3bus.snoop_fanout::1                   2471      0.00%    100.00% # Request fanout histogram
system.tol3bus.snoop_fanout::2                      0      0.00%    100.00% # Request fanout histogram
system.tol3bus.snoop_fanout::3                      0      0.00%    100.00% # Request fanout histogram
system.tol3bus.snoop_fanout::4                      0      0.00%    100.00% # Request fanout histogram
system.tol3bus.snoop_fanout::overflows              0      0.00%    100.00% # Request fanout histogram
system.tol3bus.snoop_fanout::min_value              0                       # Request fanout histogram
system.tol3bus.snoop_fanout::max_value              1                       # Request fanout histogram
system.tol3bus.snoop_fanout::total           85350619                       # Request fanout histogram
system.tol3bus.reqLayer0.occupancy        32575680500                       # Layer occupancy (ticks)
system.tol3bus.reqLayer0.utilization              3.9                       # Layer utilization (%)
system.tol3bus.respLayer0.occupancy        7995690500                       # Layer occupancy (ticks)
system.tol3bus.respLayer0.utilization             0.9                       # Layer utilization (%)
system.tol3bus.respLayer1.occupancy        7997949000                       # Layer occupancy (ticks)
system.tol3bus.respLayer1.utilization             0.9                       # Layer utilization (%)
system.tol3bus.respLayer2.occupancy        8000493997                       # Layer occupancy (ticks)
system.tol3bus.respLayer2.utilization             0.9                       # Layer utilization (%)
system.tol3bus.respLayer3.occupancy        8012550498                       # Layer occupancy (ticks)
system.tol3bus.respLayer3.utilization             0.9                       # Layer utilization (%)

---------- End Simulation Statistics   ----------
