
---------- Begin Simulation Statistics ----------
sim_seconds                                  0.861140                       # Number of seconds simulated
sim_ticks                                861139893750                       # Number of ticks simulated
final_tick                               919730184750                       # Number of ticks from beginning of simulation (restored from checkpoints and never reset)
sim_freq                                 1000000000000                       # Frequency of simulated ticks
host_inst_rate                                  98535                       # Simulator instruction rate (inst/s)
host_op_rate                                   153608                       # Simulator op (including micro ops) rate (op/s)
host_tick_rate                               35367779                       # Simulator tick rate (ticks/s)
host_mem_usage                               17093460                       # Number of bytes of host memory used
host_seconds                                 24348.15                       # Real time elapsed on the host
sim_insts                                  2399155642                       # Number of instructions simulated
sim_ops                                    3740060200                       # Number of ops (including micro ops) simulated
system.voltage_domain.voltage                       1                       # Voltage in Volts
system.clk_domain.clock                          1000                       # Clock period in ticks
system.mem_ctrls0.pwrStateResidencyTicks::UNDEFINED 919730184750                       # Cumulative time (in ticks) in various power states
system.mem_ctrls0.bytes_read::.switch_cpus_10.inst         9088                       # Number of bytes read from this memory
system.mem_ctrls0.bytes_read::.switch_cpus_10.data    341422720                       # Number of bytes read from this memory
system.mem_ctrls0.bytes_read::.switch_cpus_11.inst         9344                       # Number of bytes read from this memory
system.mem_ctrls0.bytes_read::.switch_cpus_11.data    341481920                       # Number of bytes read from this memory
system.mem_ctrls0.bytes_read::.switch_cpus_12.inst        10432                       # Number of bytes read from this memory
system.mem_ctrls0.bytes_read::.switch_cpus_12.data    341563136                       # Number of bytes read from this memory
system.mem_ctrls0.bytes_read::.switch_cpus_13.inst         9536                       # Number of bytes read from this memory
system.mem_ctrls0.bytes_read::.switch_cpus_13.data    341815808                       # Number of bytes read from this memory
system.mem_ctrls0.bytes_read::total        1366321984                       # Number of bytes read from this memory
system.mem_ctrls0.bytes_inst_read::.switch_cpus_10.inst         9088                       # Number of instructions bytes read from this memory
system.mem_ctrls0.bytes_inst_read::.switch_cpus_11.inst         9344                       # Number of instructions bytes read from this memory
system.mem_ctrls0.bytes_inst_read::.switch_cpus_12.inst        10432                       # Number of instructions bytes read from this memory
system.mem_ctrls0.bytes_inst_read::.switch_cpus_13.inst         9536                       # Number of instructions bytes read from this memory
system.mem_ctrls0.bytes_inst_read::total        38400                       # Number of instructions bytes read from this memory
system.mem_ctrls0.bytes_written::.writebacks    720720384                       # Number of bytes written to this memory
system.mem_ctrls0.bytes_written::total      720720384                       # Number of bytes written to this memory
system.mem_ctrls0.num_reads::.switch_cpus_10.inst          142                       # Number of read requests responded to by this memory
system.mem_ctrls0.num_reads::.switch_cpus_10.data      5334730                       # Number of read requests responded to by this memory
system.mem_ctrls0.num_reads::.switch_cpus_11.inst          146                       # Number of read requests responded to by this memory
system.mem_ctrls0.num_reads::.switch_cpus_11.data      5335655                       # Number of read requests responded to by this memory
system.mem_ctrls0.num_reads::.switch_cpus_12.inst          163                       # Number of read requests responded to by this memory
system.mem_ctrls0.num_reads::.switch_cpus_12.data      5336924                       # Number of read requests responded to by this memory
system.mem_ctrls0.num_reads::.switch_cpus_13.inst          149                       # Number of read requests responded to by this memory
system.mem_ctrls0.num_reads::.switch_cpus_13.data      5340872                       # Number of read requests responded to by this memory
system.mem_ctrls0.num_reads::total           21348781                       # Number of read requests responded to by this memory
system.mem_ctrls0.num_writes::.writebacks     11261256                       # Number of write requests responded to by this memory
system.mem_ctrls0.num_writes::total          11261256                       # Number of write requests responded to by this memory
system.mem_ctrls0.bw_read::.switch_cpus_10.inst        10553                       # Total read bandwidth from this memory (bytes/s)
system.mem_ctrls0.bw_read::.switch_cpus_10.data    396477648                       # Total read bandwidth from this memory (bytes/s)
system.mem_ctrls0.bw_read::.switch_cpus_11.inst        10851                       # Total read bandwidth from this memory (bytes/s)
system.mem_ctrls0.bw_read::.switch_cpus_11.data    396546394                       # Total read bandwidth from this memory (bytes/s)
system.mem_ctrls0.bw_read::.switch_cpus_12.inst        12114                       # Total read bandwidth from this memory (bytes/s)
system.mem_ctrls0.bw_read::.switch_cpus_12.data    396640707                       # Total read bandwidth from this memory (bytes/s)
system.mem_ctrls0.bw_read::.switch_cpus_13.inst        11074                       # Total read bandwidth from this memory (bytes/s)
system.mem_ctrls0.bw_read::.switch_cpus_13.data    396934122                       # Total read bandwidth from this memory (bytes/s)
system.mem_ctrls0.bw_read::total           1586643464                       # Total read bandwidth from this memory (bytes/s)
system.mem_ctrls0.bw_inst_read::.switch_cpus_10.inst        10553                       # Instruction read bandwidth from this memory (bytes/s)
system.mem_ctrls0.bw_inst_read::.switch_cpus_11.inst        10851                       # Instruction read bandwidth from this memory (bytes/s)
system.mem_ctrls0.bw_inst_read::.switch_cpus_12.inst        12114                       # Instruction read bandwidth from this memory (bytes/s)
system.mem_ctrls0.bw_inst_read::.switch_cpus_13.inst        11074                       # Instruction read bandwidth from this memory (bytes/s)
system.mem_ctrls0.bw_inst_read::total           44592                       # Instruction read bandwidth from this memory (bytes/s)
system.mem_ctrls0.bw_write::.writebacks     836937633                       # Write bandwidth from this memory (bytes/s)
system.mem_ctrls0.bw_write::total           836937633                       # Write bandwidth from this memory (bytes/s)
system.mem_ctrls0.bw_total::.writebacks     836937633                       # Total bandwidth to/from this memory (bytes/s)
system.mem_ctrls0.bw_total::.switch_cpus_10.inst        10553                       # Total bandwidth to/from this memory (bytes/s)
system.mem_ctrls0.bw_total::.switch_cpus_10.data    396477648                       # Total bandwidth to/from this memory (bytes/s)
system.mem_ctrls0.bw_total::.switch_cpus_11.inst        10851                       # Total bandwidth to/from this memory (bytes/s)
system.mem_ctrls0.bw_total::.switch_cpus_11.data    396546394                       # Total bandwidth to/from this memory (bytes/s)
system.mem_ctrls0.bw_total::.switch_cpus_12.inst        12114                       # Total bandwidth to/from this memory (bytes/s)
system.mem_ctrls0.bw_total::.switch_cpus_12.data    396640707                       # Total bandwidth to/from this memory (bytes/s)
system.mem_ctrls0.bw_total::.switch_cpus_13.inst        11074                       # Total bandwidth to/from this memory (bytes/s)
system.mem_ctrls0.bw_total::.switch_cpus_13.data    396934122                       # Total bandwidth to/from this memory (bytes/s)
system.mem_ctrls0.bw_total::total          2423581097                       # Total bandwidth to/from this memory (bytes/s)
system.mem_ctrls0.avgPriority_.writebacks::samples  11261256.00                       # Average QoS priority value for accepted requests
system.mem_ctrls0.avgPriority_.switch_cpus_10.inst::samples       142.00                       # Average QoS priority value for accepted requests
system.mem_ctrls0.avgPriority_.switch_cpus_10.data::samples   5334730.00                       # Average QoS priority value for accepted requests
system.mem_ctrls0.avgPriority_.switch_cpus_11.inst::samples       146.00                       # Average QoS priority value for accepted requests
system.mem_ctrls0.avgPriority_.switch_cpus_11.data::samples   5335655.00                       # Average QoS priority value for accepted requests
system.mem_ctrls0.avgPriority_.switch_cpus_12.inst::samples       163.00                       # Average QoS priority value for accepted requests
system.mem_ctrls0.avgPriority_.switch_cpus_12.data::samples   5336924.00                       # Average QoS priority value for accepted requests
system.mem_ctrls0.avgPriority_.switch_cpus_13.inst::samples       149.00                       # Average QoS priority value for accepted requests
system.mem_ctrls0.avgPriority_.switch_cpus_13.data::samples   5340872.00                       # Average QoS priority value for accepted requests
system.mem_ctrls0.priorityMinLatency     0.000000017860                       # per QoS priority minimum request to response latency (s)
system.mem_ctrls0.priorityMaxLatency     0.332766366640                       # per QoS priority maximum request to response latency (s)
system.mem_ctrls0.numReadWriteTurnArounds       680045                       # Number of turnarounds from READ to WRITE
system.mem_ctrls0.numWriteReadTurnArounds       680045                       # Number of turnarounds from WRITE to READ
system.mem_ctrls0.numStayReadState           46765523                       # Number of times bus staying in READ state
system.mem_ctrls0.numStayWriteState          10599685                       # Number of times bus staying in WRITE state
system.mem_ctrls0.readReqs                   21348781                       # Number of read requests accepted
system.mem_ctrls0.writeReqs                  11261256                       # Number of write requests accepted
system.mem_ctrls0.readBursts                 21348781                       # Number of DRAM read bursts, including those serviced by the write queue
system.mem_ctrls0.writeBursts                11261256                       # Number of DRAM write bursts, including those merged in the write queue
system.mem_ctrls0.bytesReadDRAM            1366321984                       # Total number of bytes read from DRAM
system.mem_ctrls0.bytesReadWrQ                      0                       # Total number of bytes read from write queue
system.mem_ctrls0.bytesWritten              720716480                       # Total number of bytes written to DRAM
system.mem_ctrls0.bytesReadSys             1366321984                       # Total read bytes from the system interface side
system.mem_ctrls0.bytesWrittenSys           720720384                       # Total written bytes from the system interface side
system.mem_ctrls0.servicedByWrQ                     0                       # Number of DRAM read bursts serviced by the write queue
system.mem_ctrls0.mergedWrBursts                    0                       # Number of DRAM write bursts merged with an existing one
system.mem_ctrls0.neitherReadNorWriteReqs            0                       # Number of requests that are neither read nor write
system.mem_ctrls0.perBankRdBursts::0           667721                       # Per bank write bursts
system.mem_ctrls0.perBankRdBursts::1           667520                       # Per bank write bursts
system.mem_ctrls0.perBankRdBursts::2           667531                       # Per bank write bursts
system.mem_ctrls0.perBankRdBursts::3           667348                       # Per bank write bursts
system.mem_ctrls0.perBankRdBursts::4           667385                       # Per bank write bursts
system.mem_ctrls0.perBankRdBursts::5           667129                       # Per bank write bursts
system.mem_ctrls0.perBankRdBursts::6           667037                       # Per bank write bursts
system.mem_ctrls0.perBankRdBursts::7           666883                       # Per bank write bursts
system.mem_ctrls0.perBankRdBursts::8           666682                       # Per bank write bursts
system.mem_ctrls0.perBankRdBursts::9           666640                       # Per bank write bursts
system.mem_ctrls0.perBankRdBursts::10          666597                       # Per bank write bursts
system.mem_ctrls0.perBankRdBursts::11          666578                       # Per bank write bursts
system.mem_ctrls0.perBankRdBursts::12          666569                       # Per bank write bursts
system.mem_ctrls0.perBankRdBursts::13          666574                       # Per bank write bursts
system.mem_ctrls0.perBankRdBursts::14          666589                       # Per bank write bursts
system.mem_ctrls0.perBankRdBursts::15          666593                       # Per bank write bursts
system.mem_ctrls0.perBankRdBursts::16          666675                       # Per bank write bursts
system.mem_ctrls0.perBankRdBursts::17          666687                       # Per bank write bursts
system.mem_ctrls0.perBankRdBursts::18          666780                       # Per bank write bursts
system.mem_ctrls0.perBankRdBursts::19          666822                       # Per bank write bursts
system.mem_ctrls0.perBankRdBursts::20          666870                       # Per bank write bursts
system.mem_ctrls0.perBankRdBursts::21          667108                       # Per bank write bursts
system.mem_ctrls0.perBankRdBursts::22          667152                       # Per bank write bursts
system.mem_ctrls0.perBankRdBursts::23          667293                       # Per bank write bursts
system.mem_ctrls0.perBankRdBursts::24          667352                       # Per bank write bursts
system.mem_ctrls0.perBankRdBursts::25          667551                       # Per bank write bursts
system.mem_ctrls0.perBankRdBursts::26          667650                       # Per bank write bursts
system.mem_ctrls0.perBankRdBursts::27          667960                       # Per bank write bursts
system.mem_ctrls0.perBankRdBursts::28          667891                       # Per bank write bursts
system.mem_ctrls0.perBankRdBursts::29          667923                       # Per bank write bursts
system.mem_ctrls0.perBankRdBursts::30          667879                       # Per bank write bursts
system.mem_ctrls0.perBankRdBursts::31          667812                       # Per bank write bursts
system.mem_ctrls0.perBankWrBursts::0           352160                       # Per bank write bursts
system.mem_ctrls0.perBankWrBursts::1           351995                       # Per bank write bursts
system.mem_ctrls0.perBankWrBursts::2           352017                       # Per bank write bursts
system.mem_ctrls0.perBankWrBursts::3           351813                       # Per bank write bursts
system.mem_ctrls0.perBankWrBursts::4           351770                       # Per bank write bursts
system.mem_ctrls0.perBankWrBursts::5           351606                       # Per bank write bursts
system.mem_ctrls0.perBankWrBursts::6           351467                       # Per bank write bursts
system.mem_ctrls0.perBankWrBursts::7           351454                       # Per bank write bursts
system.mem_ctrls0.perBankWrBursts::8           351277                       # Per bank write bursts
system.mem_ctrls0.perBankWrBursts::9           351184                       # Per bank write bursts
system.mem_ctrls0.perBankWrBursts::10          351224                       # Per bank write bursts
system.mem_ctrls0.perBankWrBursts::11          351204                       # Per bank write bursts
system.mem_ctrls0.perBankWrBursts::12          351390                       # Per bank write bursts
system.mem_ctrls0.perBankWrBursts::13          351427                       # Per bank write bursts
system.mem_ctrls0.perBankWrBursts::14          351540                       # Per bank write bursts
system.mem_ctrls0.perBankWrBursts::15          351616                       # Per bank write bursts
system.mem_ctrls0.perBankWrBursts::16          351823                       # Per bank write bursts
system.mem_ctrls0.perBankWrBursts::17          351961                       # Per bank write bursts
system.mem_ctrls0.perBankWrBursts::18          352064                       # Per bank write bursts
system.mem_ctrls0.perBankWrBursts::19          352196                       # Per bank write bursts
system.mem_ctrls0.perBankWrBursts::20          352238                       # Per bank write bursts
system.mem_ctrls0.perBankWrBursts::21          352279                       # Per bank write bursts
system.mem_ctrls0.perBankWrBursts::22          352286                       # Per bank write bursts
system.mem_ctrls0.perBankWrBursts::23          352292                       # Per bank write bursts
system.mem_ctrls0.perBankWrBursts::24          352348                       # Per bank write bursts
system.mem_ctrls0.perBankWrBursts::25          352393                       # Per bank write bursts
system.mem_ctrls0.perBankWrBursts::26          352388                       # Per bank write bursts
system.mem_ctrls0.perBankWrBursts::27          352425                       # Per bank write bursts
system.mem_ctrls0.perBankWrBursts::28          352363                       # Per bank write bursts
system.mem_ctrls0.perBankWrBursts::29          352382                       # Per bank write bursts
system.mem_ctrls0.perBankWrBursts::30          352321                       # Per bank write bursts
system.mem_ctrls0.perBankWrBursts::31          352292                       # Per bank write bursts
system.mem_ctrls0.numRdRetry                        0                       # Number of times read queue was full causing retry
system.mem_ctrls0.numWrRetry                        0                       # Number of times write queue was full causing retry
system.mem_ctrls0.totGap                 861139832500                       # Total gap between requests
system.mem_ctrls0.readPktSize::0                    0                       # Read request sizes (log2)
system.mem_ctrls0.readPktSize::1                    0                       # Read request sizes (log2)
system.mem_ctrls0.readPktSize::2                    0                       # Read request sizes (log2)
system.mem_ctrls0.readPktSize::3                    0                       # Read request sizes (log2)
system.mem_ctrls0.readPktSize::4                    0                       # Read request sizes (log2)
system.mem_ctrls0.readPktSize::5                    0                       # Read request sizes (log2)
system.mem_ctrls0.readPktSize::6             21348781                       # Read request sizes (log2)
system.mem_ctrls0.writePktSize::0                   0                       # Write request sizes (log2)
system.mem_ctrls0.writePktSize::1                   0                       # Write request sizes (log2)
system.mem_ctrls0.writePktSize::2                   0                       # Write request sizes (log2)
system.mem_ctrls0.writePktSize::3                   0                       # Write request sizes (log2)
system.mem_ctrls0.writePktSize::4                   0                       # Write request sizes (log2)
system.mem_ctrls0.writePktSize::5                   0                       # Write request sizes (log2)
system.mem_ctrls0.writePktSize::6            11261256                       # Write request sizes (log2)
system.mem_ctrls0.rdQLenPdf::0                6951214                       # What read queue length does an incoming req see
system.mem_ctrls0.rdQLenPdf::1                6756963                       # What read queue length does an incoming req see
system.mem_ctrls0.rdQLenPdf::2                4337720                       # What read queue length does an incoming req see
system.mem_ctrls0.rdQLenPdf::3                2118019                       # What read queue length does an incoming req see
system.mem_ctrls0.rdQLenPdf::4                 802423                       # What read queue length does an incoming req see
system.mem_ctrls0.rdQLenPdf::5                 267868                       # What read queue length does an incoming req see
system.mem_ctrls0.rdQLenPdf::6                  79997                       # What read queue length does an incoming req see
system.mem_ctrls0.rdQLenPdf::7                  22098                       # What read queue length does an incoming req see
system.mem_ctrls0.rdQLenPdf::8                   6320                       # What read queue length does an incoming req see
system.mem_ctrls0.rdQLenPdf::9                   3632                       # What read queue length does an incoming req see
system.mem_ctrls0.rdQLenPdf::10                  1845                       # What read queue length does an incoming req see
system.mem_ctrls0.rdQLenPdf::11                   655                       # What read queue length does an incoming req see
system.mem_ctrls0.rdQLenPdf::12                    25                       # What read queue length does an incoming req see
system.mem_ctrls0.rdQLenPdf::13                     2                       # What read queue length does an incoming req see
system.mem_ctrls0.rdQLenPdf::14                     0                       # What read queue length does an incoming req see
system.mem_ctrls0.rdQLenPdf::15                     0                       # What read queue length does an incoming req see
system.mem_ctrls0.rdQLenPdf::16                     0                       # What read queue length does an incoming req see
system.mem_ctrls0.rdQLenPdf::17                     0                       # What read queue length does an incoming req see
system.mem_ctrls0.rdQLenPdf::18                     0                       # What read queue length does an incoming req see
system.mem_ctrls0.rdQLenPdf::19                     0                       # What read queue length does an incoming req see
system.mem_ctrls0.rdQLenPdf::20                     0                       # What read queue length does an incoming req see
system.mem_ctrls0.rdQLenPdf::21                     0                       # What read queue length does an incoming req see
system.mem_ctrls0.rdQLenPdf::22                     0                       # What read queue length does an incoming req see
system.mem_ctrls0.rdQLenPdf::23                     0                       # What read queue length does an incoming req see
system.mem_ctrls0.rdQLenPdf::24                     0                       # What read queue length does an incoming req see
system.mem_ctrls0.rdQLenPdf::25                     0                       # What read queue length does an incoming req see
system.mem_ctrls0.rdQLenPdf::26                     0                       # What read queue length does an incoming req see
system.mem_ctrls0.rdQLenPdf::27                     0                       # What read queue length does an incoming req see
system.mem_ctrls0.rdQLenPdf::28                     0                       # What read queue length does an incoming req see
system.mem_ctrls0.rdQLenPdf::29                     0                       # What read queue length does an incoming req see
system.mem_ctrls0.rdQLenPdf::30                     0                       # What read queue length does an incoming req see
system.mem_ctrls0.rdQLenPdf::31                     0                       # What read queue length does an incoming req see
system.mem_ctrls0.rdQLenPdf::32                     0                       # What read queue length does an incoming req see
system.mem_ctrls0.rdQLenPdf::33                     0                       # What read queue length does an incoming req see
system.mem_ctrls0.rdQLenPdf::34                     0                       # What read queue length does an incoming req see
system.mem_ctrls0.rdQLenPdf::35                     0                       # What read queue length does an incoming req see
system.mem_ctrls0.rdQLenPdf::36                     0                       # What read queue length does an incoming req see
system.mem_ctrls0.rdQLenPdf::37                     0                       # What read queue length does an incoming req see
system.mem_ctrls0.rdQLenPdf::38                     0                       # What read queue length does an incoming req see
system.mem_ctrls0.rdQLenPdf::39                     0                       # What read queue length does an incoming req see
system.mem_ctrls0.rdQLenPdf::40                     0                       # What read queue length does an incoming req see
system.mem_ctrls0.rdQLenPdf::41                     0                       # What read queue length does an incoming req see
system.mem_ctrls0.rdQLenPdf::42                     0                       # What read queue length does an incoming req see
system.mem_ctrls0.rdQLenPdf::43                     0                       # What read queue length does an incoming req see
system.mem_ctrls0.rdQLenPdf::44                     0                       # What read queue length does an incoming req see
system.mem_ctrls0.rdQLenPdf::45                     0                       # What read queue length does an incoming req see
system.mem_ctrls0.rdQLenPdf::46                     0                       # What read queue length does an incoming req see
system.mem_ctrls0.rdQLenPdf::47                     0                       # What read queue length does an incoming req see
system.mem_ctrls0.rdQLenPdf::48                     0                       # What read queue length does an incoming req see
system.mem_ctrls0.rdQLenPdf::49                     0                       # What read queue length does an incoming req see
system.mem_ctrls0.rdQLenPdf::50                     0                       # What read queue length does an incoming req see
system.mem_ctrls0.rdQLenPdf::51                     0                       # What read queue length does an incoming req see
system.mem_ctrls0.rdQLenPdf::52                     0                       # What read queue length does an incoming req see
system.mem_ctrls0.rdQLenPdf::53                     0                       # What read queue length does an incoming req see
system.mem_ctrls0.rdQLenPdf::54                     0                       # What read queue length does an incoming req see
system.mem_ctrls0.rdQLenPdf::55                     0                       # What read queue length does an incoming req see
system.mem_ctrls0.rdQLenPdf::56                     0                       # What read queue length does an incoming req see
system.mem_ctrls0.rdQLenPdf::57                     0                       # What read queue length does an incoming req see
system.mem_ctrls0.rdQLenPdf::58                     0                       # What read queue length does an incoming req see
system.mem_ctrls0.rdQLenPdf::59                     0                       # What read queue length does an incoming req see
system.mem_ctrls0.rdQLenPdf::60                     0                       # What read queue length does an incoming req see
system.mem_ctrls0.rdQLenPdf::61                     0                       # What read queue length does an incoming req see
system.mem_ctrls0.rdQLenPdf::62                     0                       # What read queue length does an incoming req see
system.mem_ctrls0.rdQLenPdf::63                     0                       # What read queue length does an incoming req see
system.mem_ctrls0.wrQLenPdf::0                      1                       # What write queue length does an incoming req see
system.mem_ctrls0.wrQLenPdf::1                      1                       # What write queue length does an incoming req see
system.mem_ctrls0.wrQLenPdf::2                      1                       # What write queue length does an incoming req see
system.mem_ctrls0.wrQLenPdf::3                      1                       # What write queue length does an incoming req see
system.mem_ctrls0.wrQLenPdf::4                      1                       # What write queue length does an incoming req see
system.mem_ctrls0.wrQLenPdf::5                      1                       # What write queue length does an incoming req see
system.mem_ctrls0.wrQLenPdf::6                      1                       # What write queue length does an incoming req see
system.mem_ctrls0.wrQLenPdf::7                      1                       # What write queue length does an incoming req see
system.mem_ctrls0.wrQLenPdf::8                      1                       # What write queue length does an incoming req see
system.mem_ctrls0.wrQLenPdf::9                      1                       # What write queue length does an incoming req see
system.mem_ctrls0.wrQLenPdf::10                     1                       # What write queue length does an incoming req see
system.mem_ctrls0.wrQLenPdf::11                     1                       # What write queue length does an incoming req see
system.mem_ctrls0.wrQLenPdf::12                     1                       # What write queue length does an incoming req see
system.mem_ctrls0.wrQLenPdf::13                     1                       # What write queue length does an incoming req see
system.mem_ctrls0.wrQLenPdf::14                     1                       # What write queue length does an incoming req see
system.mem_ctrls0.wrQLenPdf::15                     1                       # What write queue length does an incoming req see
system.mem_ctrls0.wrQLenPdf::16                     1                       # What write queue length does an incoming req see
system.mem_ctrls0.wrQLenPdf::17                     1                       # What write queue length does an incoming req see
system.mem_ctrls0.wrQLenPdf::18                     1                       # What write queue length does an incoming req see
system.mem_ctrls0.wrQLenPdf::19                     1                       # What write queue length does an incoming req see
system.mem_ctrls0.wrQLenPdf::20                     1                       # What write queue length does an incoming req see
system.mem_ctrls0.wrQLenPdf::21                     1                       # What write queue length does an incoming req see
system.mem_ctrls0.wrQLenPdf::22                     1                       # What write queue length does an incoming req see
system.mem_ctrls0.wrQLenPdf::23                     1                       # What write queue length does an incoming req see
system.mem_ctrls0.wrQLenPdf::24                     1                       # What write queue length does an incoming req see
system.mem_ctrls0.wrQLenPdf::25                     1                       # What write queue length does an incoming req see
system.mem_ctrls0.wrQLenPdf::26                     1                       # What write queue length does an incoming req see
system.mem_ctrls0.wrQLenPdf::27                     1                       # What write queue length does an incoming req see
system.mem_ctrls0.wrQLenPdf::28                     1                       # What write queue length does an incoming req see
system.mem_ctrls0.wrQLenPdf::29                     1                       # What write queue length does an incoming req see
system.mem_ctrls0.wrQLenPdf::30                     1                       # What write queue length does an incoming req see
system.mem_ctrls0.wrQLenPdf::31                     1                       # What write queue length does an incoming req see
system.mem_ctrls0.wrQLenPdf::32                     1                       # What write queue length does an incoming req see
system.mem_ctrls0.wrQLenPdf::33                     1                       # What write queue length does an incoming req see
system.mem_ctrls0.wrQLenPdf::34                     1                       # What write queue length does an incoming req see
system.mem_ctrls0.wrQLenPdf::35                     1                       # What write queue length does an incoming req see
system.mem_ctrls0.wrQLenPdf::36                     1                       # What write queue length does an incoming req see
system.mem_ctrls0.wrQLenPdf::37                     1                       # What write queue length does an incoming req see
system.mem_ctrls0.wrQLenPdf::38                     1                       # What write queue length does an incoming req see
system.mem_ctrls0.wrQLenPdf::39                     1                       # What write queue length does an incoming req see
system.mem_ctrls0.wrQLenPdf::40                     1                       # What write queue length does an incoming req see
system.mem_ctrls0.wrQLenPdf::41                     1                       # What write queue length does an incoming req see
system.mem_ctrls0.wrQLenPdf::42                     1                       # What write queue length does an incoming req see
system.mem_ctrls0.wrQLenPdf::43                     1                       # What write queue length does an incoming req see
system.mem_ctrls0.wrQLenPdf::44                     1                       # What write queue length does an incoming req see
system.mem_ctrls0.wrQLenPdf::45                     1                       # What write queue length does an incoming req see
system.mem_ctrls0.wrQLenPdf::46                     1                       # What write queue length does an incoming req see
system.mem_ctrls0.wrQLenPdf::47                115829                       # What write queue length does an incoming req see
system.mem_ctrls0.wrQLenPdf::48                135146                       # What write queue length does an incoming req see
system.mem_ctrls0.wrQLenPdf::49                373079                       # What write queue length does an incoming req see
system.mem_ctrls0.wrQLenPdf::50                590899                       # What write queue length does an incoming req see
system.mem_ctrls0.wrQLenPdf::51                676553                       # What write queue length does an incoming req see
system.mem_ctrls0.wrQLenPdf::52                698424                       # What write queue length does an incoming req see
system.mem_ctrls0.wrQLenPdf::53                705266                       # What write queue length does an incoming req see
system.mem_ctrls0.wrQLenPdf::54                707832                       # What write queue length does an incoming req see
system.mem_ctrls0.wrQLenPdf::55                712270                       # What write queue length does an incoming req see
system.mem_ctrls0.wrQLenPdf::56                715176                       # What write queue length does an incoming req see
system.mem_ctrls0.wrQLenPdf::57                718888                       # What write queue length does an incoming req see
system.mem_ctrls0.wrQLenPdf::58                721634                       # What write queue length does an incoming req see
system.mem_ctrls0.wrQLenPdf::59                728724                       # What write queue length does an incoming req see
system.mem_ctrls0.wrQLenPdf::60                730036                       # What write queue length does an incoming req see
system.mem_ctrls0.wrQLenPdf::61                735665                       # What write queue length does an incoming req see
system.mem_ctrls0.wrQLenPdf::62                728454                       # What write queue length does an incoming req see
system.mem_ctrls0.wrQLenPdf::63                713709                       # What write queue length does an incoming req see
system.mem_ctrls0.wrQLenPdf::64                717049                       # What write queue length does an incoming req see
system.mem_ctrls0.wrQLenPdf::65                 18791                       # What write queue length does an incoming req see
system.mem_ctrls0.wrQLenPdf::66                  8154                       # What write queue length does an incoming req see
system.mem_ctrls0.wrQLenPdf::67                  3996                       # What write queue length does an incoming req see
system.mem_ctrls0.wrQLenPdf::68                  1902                       # What write queue length does an incoming req see
system.mem_ctrls0.wrQLenPdf::69                   972                       # What write queue length does an incoming req see
system.mem_ctrls0.wrQLenPdf::70                   617                       # What write queue length does an incoming req see
system.mem_ctrls0.wrQLenPdf::71                   416                       # What write queue length does an incoming req see
system.mem_ctrls0.wrQLenPdf::72                   311                       # What write queue length does an incoming req see
system.mem_ctrls0.wrQLenPdf::73                   259                       # What write queue length does an incoming req see
system.mem_ctrls0.wrQLenPdf::74                   210                       # What write queue length does an incoming req see
system.mem_ctrls0.wrQLenPdf::75                   186                       # What write queue length does an incoming req see
system.mem_ctrls0.wrQLenPdf::76                   135                       # What write queue length does an incoming req see
system.mem_ctrls0.wrQLenPdf::77                   100                       # What write queue length does an incoming req see
system.mem_ctrls0.wrQLenPdf::78                    88                       # What write queue length does an incoming req see
system.mem_ctrls0.wrQLenPdf::79                    62                       # What write queue length does an incoming req see
system.mem_ctrls0.wrQLenPdf::80                    45                       # What write queue length does an incoming req see
system.mem_ctrls0.wrQLenPdf::81                    54                       # What write queue length does an incoming req see
system.mem_ctrls0.wrQLenPdf::82                    52                       # What write queue length does an incoming req see
system.mem_ctrls0.wrQLenPdf::83                    40                       # What write queue length does an incoming req see
system.mem_ctrls0.wrQLenPdf::84                    30                       # What write queue length does an incoming req see
system.mem_ctrls0.wrQLenPdf::85                    23                       # What write queue length does an incoming req see
system.mem_ctrls0.wrQLenPdf::86                    25                       # What write queue length does an incoming req see
system.mem_ctrls0.wrQLenPdf::87                    18                       # What write queue length does an incoming req see
system.mem_ctrls0.wrQLenPdf::88                    17                       # What write queue length does an incoming req see
system.mem_ctrls0.wrQLenPdf::89                    12                       # What write queue length does an incoming req see
system.mem_ctrls0.wrQLenPdf::90                     9                       # What write queue length does an incoming req see
system.mem_ctrls0.wrQLenPdf::91                     8                       # What write queue length does an incoming req see
system.mem_ctrls0.wrQLenPdf::92                     8                       # What write queue length does an incoming req see
system.mem_ctrls0.wrQLenPdf::93                    10                       # What write queue length does an incoming req see
system.mem_ctrls0.wrQLenPdf::94                     8                       # What write queue length does an incoming req see
system.mem_ctrls0.wrQLenPdf::95                     6                       # What write queue length does an incoming req see
system.mem_ctrls0.wrQLenPdf::96                     7                       # What write queue length does an incoming req see
system.mem_ctrls0.wrQLenPdf::97                     4                       # What write queue length does an incoming req see
system.mem_ctrls0.wrQLenPdf::98                     1                       # What write queue length does an incoming req see
system.mem_ctrls0.wrQLenPdf::99                     0                       # What write queue length does an incoming req see
system.mem_ctrls0.wrQLenPdf::100                    0                       # What write queue length does an incoming req see
system.mem_ctrls0.wrQLenPdf::101                    0                       # What write queue length does an incoming req see
system.mem_ctrls0.wrQLenPdf::102                    0                       # What write queue length does an incoming req see
system.mem_ctrls0.wrQLenPdf::103                    0                       # What write queue length does an incoming req see
system.mem_ctrls0.wrQLenPdf::104                    0                       # What write queue length does an incoming req see
system.mem_ctrls0.wrQLenPdf::105                    0                       # What write queue length does an incoming req see
system.mem_ctrls0.wrQLenPdf::106                    0                       # What write queue length does an incoming req see
system.mem_ctrls0.wrQLenPdf::107                    0                       # What write queue length does an incoming req see
system.mem_ctrls0.wrQLenPdf::108                    0                       # What write queue length does an incoming req see
system.mem_ctrls0.wrQLenPdf::109                    0                       # What write queue length does an incoming req see
system.mem_ctrls0.wrQLenPdf::110                    0                       # What write queue length does an incoming req see
system.mem_ctrls0.wrQLenPdf::111                    0                       # What write queue length does an incoming req see
system.mem_ctrls0.wrQLenPdf::112                    0                       # What write queue length does an incoming req see
system.mem_ctrls0.wrQLenPdf::113                    0                       # What write queue length does an incoming req see
system.mem_ctrls0.wrQLenPdf::114                    0                       # What write queue length does an incoming req see
system.mem_ctrls0.wrQLenPdf::115                    0                       # What write queue length does an incoming req see
system.mem_ctrls0.wrQLenPdf::116                    0                       # What write queue length does an incoming req see
system.mem_ctrls0.wrQLenPdf::117                    0                       # What write queue length does an incoming req see
system.mem_ctrls0.wrQLenPdf::118                    0                       # What write queue length does an incoming req see
system.mem_ctrls0.wrQLenPdf::119                    0                       # What write queue length does an incoming req see
system.mem_ctrls0.wrQLenPdf::120                    0                       # What write queue length does an incoming req see
system.mem_ctrls0.wrQLenPdf::121                    0                       # What write queue length does an incoming req see
system.mem_ctrls0.wrQLenPdf::122                    0                       # What write queue length does an incoming req see
system.mem_ctrls0.wrQLenPdf::123                    0                       # What write queue length does an incoming req see
system.mem_ctrls0.wrQLenPdf::124                    0                       # What write queue length does an incoming req see
system.mem_ctrls0.wrQLenPdf::125                    0                       # What write queue length does an incoming req see
system.mem_ctrls0.wrQLenPdf::126                    0                       # What write queue length does an incoming req see
system.mem_ctrls0.wrQLenPdf::127                    0                       # What write queue length does an incoming req see
system.mem_ctrls0.bytesPerActivate::samples     15897955                       # Bytes accessed per row activation
system.mem_ctrls0.bytesPerActivate::mean   131.276984                       # Bytes accessed per row activation
system.mem_ctrls0.bytesPerActivate::gmean   103.647218                       # Bytes accessed per row activation
system.mem_ctrls0.bytesPerActivate::stdev   123.568807                       # Bytes accessed per row activation
system.mem_ctrls0.bytesPerActivate::0-127      8543577     53.74%     53.74% # Bytes accessed per row activation
system.mem_ctrls0.bytesPerActivate::128-255      5361107     33.72%     87.46% # Bytes accessed per row activation
system.mem_ctrls0.bytesPerActivate::256-383      1187033      7.47%     94.93% # Bytes accessed per row activation
system.mem_ctrls0.bytesPerActivate::384-511       438560      2.76%     97.69% # Bytes accessed per row activation
system.mem_ctrls0.bytesPerActivate::512-639       113953      0.72%     98.40% # Bytes accessed per row activation
system.mem_ctrls0.bytesPerActivate::640-767       125012      0.79%     99.19% # Bytes accessed per row activation
system.mem_ctrls0.bytesPerActivate::768-895        36691      0.23%     99.42% # Bytes accessed per row activation
system.mem_ctrls0.bytesPerActivate::896-1023         7104      0.04%     99.47% # Bytes accessed per row activation
system.mem_ctrls0.bytesPerActivate::1024-1151        84918      0.53%    100.00% # Bytes accessed per row activation
system.mem_ctrls0.bytesPerActivate::total     15897955                       # Bytes accessed per row activation
system.mem_ctrls0.rdPerTurnAround::samples       680045                       # Reads before turning the bus around for writes
system.mem_ctrls0.rdPerTurnAround::mean     31.393159                       # Reads before turning the bus around for writes
system.mem_ctrls0.rdPerTurnAround::gmean    21.353521                       # Reads before turning the bus around for writes
system.mem_ctrls0.rdPerTurnAround::stdev  7843.954415                       # Reads before turning the bus around for writes
system.mem_ctrls0.rdPerTurnAround::0-131071       680044    100.00%    100.00% # Reads before turning the bus around for writes
system.mem_ctrls0.rdPerTurnAround::6.42253e+06-6.5536e+06            1      0.00%    100.00% # Reads before turning the bus around for writes
system.mem_ctrls0.rdPerTurnAround::total       680045                       # Reads before turning the bus around for writes
system.mem_ctrls0.wrPerTurnAround::samples       680045                       # Writes before turning the bus around for reads
system.mem_ctrls0.wrPerTurnAround::mean     16.559485                       # Writes before turning the bus around for reads
system.mem_ctrls0.wrPerTurnAround::gmean    16.518851                       # Writes before turning the bus around for reads
system.mem_ctrls0.wrPerTurnAround::stdev     1.217474                       # Writes before turning the bus around for reads
system.mem_ctrls0.wrPerTurnAround::16          542622     79.79%     79.79% # Writes before turning the bus around for reads
system.mem_ctrls0.wrPerTurnAround::17           10420      1.53%     81.32% # Writes before turning the bus around for reads
system.mem_ctrls0.wrPerTurnAround::18           53104      7.81%     89.13% # Writes before turning the bus around for reads
system.mem_ctrls0.wrPerTurnAround::19           44616      6.56%     95.69% # Writes before turning the bus around for reads
system.mem_ctrls0.wrPerTurnAround::20           20400      3.00%     98.69% # Writes before turning the bus around for reads
system.mem_ctrls0.wrPerTurnAround::21            6299      0.93%     99.62% # Writes before turning the bus around for reads
system.mem_ctrls0.wrPerTurnAround::22            1681      0.25%     99.87% # Writes before turning the bus around for reads
system.mem_ctrls0.wrPerTurnAround::23             553      0.08%     99.95% # Writes before turning the bus around for reads
system.mem_ctrls0.wrPerTurnAround::24             241      0.04%     99.98% # Writes before turning the bus around for reads
system.mem_ctrls0.wrPerTurnAround::25              79      0.01%    100.00% # Writes before turning the bus around for reads
system.mem_ctrls0.wrPerTurnAround::26              23      0.00%    100.00% # Writes before turning the bus around for reads
system.mem_ctrls0.wrPerTurnAround::27               6      0.00%    100.00% # Writes before turning the bus around for reads
system.mem_ctrls0.wrPerTurnAround::28               1      0.00%    100.00% # Writes before turning the bus around for reads
system.mem_ctrls0.wrPerTurnAround::total       680045                       # Writes before turning the bus around for reads
system.mem_ctrls0.masterReadBytes::.switch_cpus_10.inst         9088                       # Per-master bytes read from memory
system.mem_ctrls0.masterReadBytes::.switch_cpus_10.data    341422720                       # Per-master bytes read from memory
system.mem_ctrls0.masterReadBytes::.switch_cpus_11.inst         9344                       # Per-master bytes read from memory
system.mem_ctrls0.masterReadBytes::.switch_cpus_11.data    341481920                       # Per-master bytes read from memory
system.mem_ctrls0.masterReadBytes::.switch_cpus_12.inst        10432                       # Per-master bytes read from memory
system.mem_ctrls0.masterReadBytes::.switch_cpus_12.data    341563136                       # Per-master bytes read from memory
system.mem_ctrls0.masterReadBytes::.switch_cpus_13.inst         9536                       # Per-master bytes read from memory
system.mem_ctrls0.masterReadBytes::.switch_cpus_13.data    341815808                       # Per-master bytes read from memory
system.mem_ctrls0.masterWriteBytes::.writebacks    720716480                       # Per-master bytes write to memory
system.mem_ctrls0.masterReadRate::.switch_cpus_10.inst 10553.453702422899                       # Per-master bytes read from memory rate (Bytes/sec)
system.mem_ctrls0.masterReadRate::.switch_cpus_10.data 396477648.379764199257                       # Per-master bytes read from memory rate (Bytes/sec)
system.mem_ctrls0.masterReadRate::.switch_cpus_11.inst 10850.734088406643                       # Per-master bytes read from memory rate (Bytes/sec)
system.mem_ctrls0.masterReadRate::.switch_cpus_11.data 396546394.469022929668                       # Per-master bytes read from memory rate (Bytes/sec)
system.mem_ctrls0.masterReadRate::.switch_cpus_12.inst 12114.175728837554                       # Per-master bytes read from memory rate (Bytes/sec)
system.mem_ctrls0.masterReadRate::.switch_cpus_12.data 396640706.671476304531                       # Per-master bytes read from memory rate (Bytes/sec)
system.mem_ctrls0.masterReadRate::.switch_cpus_13.inst 11073.694377894451                       # Per-master bytes read from memory rate (Bytes/sec)
system.mem_ctrls0.masterReadRate::.switch_cpus_13.data 396934122.412442207336                       # Per-master bytes read from memory rate (Bytes/sec)
system.mem_ctrls0.masterWriteRate::.writebacks 836933099.059551000595                       # Per-master bytes write to memory rate (Bytes/sec)
system.mem_ctrls0.masterReadAccesses::.switch_cpus_10.inst          142                       # Per-master read serviced memory accesses
system.mem_ctrls0.masterReadAccesses::.switch_cpus_10.data      5334730                       # Per-master read serviced memory accesses
system.mem_ctrls0.masterReadAccesses::.switch_cpus_11.inst          146                       # Per-master read serviced memory accesses
system.mem_ctrls0.masterReadAccesses::.switch_cpus_11.data      5335655                       # Per-master read serviced memory accesses
system.mem_ctrls0.masterReadAccesses::.switch_cpus_12.inst          163                       # Per-master read serviced memory accesses
system.mem_ctrls0.masterReadAccesses::.switch_cpus_12.data      5336924                       # Per-master read serviced memory accesses
system.mem_ctrls0.masterReadAccesses::.switch_cpus_13.inst          149                       # Per-master read serviced memory accesses
system.mem_ctrls0.masterReadAccesses::.switch_cpus_13.data      5340872                       # Per-master read serviced memory accesses
system.mem_ctrls0.masterWriteAccesses::.writebacks     11261256                       # Per-master write serviced memory accesses
system.mem_ctrls0.masterReadTotalLat::.switch_cpus_10.inst      7910159                       # Per-master read total memory access latency
system.mem_ctrls0.masterReadTotalLat::.switch_cpus_10.data 283554630430                       # Per-master read total memory access latency
system.mem_ctrls0.masterReadTotalLat::.switch_cpus_11.inst      9068299                       # Per-master read total memory access latency
system.mem_ctrls0.masterReadTotalLat::.switch_cpus_11.data 282092868164                       # Per-master read total memory access latency
system.mem_ctrls0.masterReadTotalLat::.switch_cpus_12.inst      7308512                       # Per-master read total memory access latency
system.mem_ctrls0.masterReadTotalLat::.switch_cpus_12.data 282750879740                       # Per-master read total memory access latency
system.mem_ctrls0.masterReadTotalLat::.switch_cpus_13.inst      7214321                       # Per-master read total memory access latency
system.mem_ctrls0.masterReadTotalLat::.switch_cpus_13.data 280385748690                       # Per-master read total memory access latency
system.mem_ctrls0.masterWriteTotalLat::.writebacks 49341957294663                       # Per-master write total memory access latency
system.mem_ctrls0.masterReadAvgLat::.switch_cpus_10.inst     55705.35                       # Per-master read average memory access latency
system.mem_ctrls0.masterReadAvgLat::.switch_cpus_10.data     53152.57                       # Per-master read average memory access latency
system.mem_ctrls0.masterReadAvgLat::.switch_cpus_11.inst     62111.64                       # Per-master read average memory access latency
system.mem_ctrls0.masterReadAvgLat::.switch_cpus_11.data     52869.40                       # Per-master read average memory access latency
system.mem_ctrls0.masterReadAvgLat::.switch_cpus_12.inst     44837.50                       # Per-master read average memory access latency
system.mem_ctrls0.masterReadAvgLat::.switch_cpus_12.data     52980.12                       # Per-master read average memory access latency
system.mem_ctrls0.masterReadAvgLat::.switch_cpus_13.inst     48418.26                       # Per-master read average memory access latency
system.mem_ctrls0.masterReadAvgLat::.switch_cpus_13.data     52498.12                       # Per-master read average memory access latency
system.mem_ctrls0.masterWriteAvgLat::.writebacks   4381567.85                       # Per-master write average memory access latency
system.mem_ctrls0.totQLat                747526399655                       # Total ticks spent queuing
system.mem_ctrls0.totMemAccLat           1128815628315                       # Total ticks spent from burst creation until serviced by the DRAM
system.mem_ctrls0.totBusLat               80271416560                       # Total ticks spent in databus transfers
system.mem_ctrls0.avgQLat                    35014.95                       # Average queueing delay per DRAM burst
system.mem_ctrls0.avgBusLat                   3760.00                       # Average bus latency per DRAM burst
system.mem_ctrls0.avgMemAccLat               52874.95                       # Average memory access latency per DRAM burst
system.mem_ctrls0.avgRdBW                     1586.64                       # Average DRAM read bandwidth in MiByte/s
system.mem_ctrls0.avgWrBW                      836.93                       # Average achieved write bandwidth in MiByte/s
system.mem_ctrls0.avgRdBWSys                  1586.64                       # Average system read bandwidth in MiByte/s
system.mem_ctrls0.avgWrBWSys                   836.94                       # Average system write bandwidth in MiByte/s
system.mem_ctrls0.peakBW                     17021.00                       # Theoretical peak bandwidth in MiByte/s
system.mem_ctrls0.busUtil                       14.24                       # Data bus utilization in percentage
system.mem_ctrls0.busUtilRead                    9.32                       # Data bus utilization in percentage for reads
system.mem_ctrls0.busUtilWrite                   4.92                       # Data bus utilization in percentage for writes
system.mem_ctrls0.avgRdQLen                      2.46                       # Average read queue length when enqueuing
system.mem_ctrls0.avgWrQLen                     57.59                       # Average write queue length when enqueuing
system.mem_ctrls0.readRowHits                 9349424                       # Number of row buffer hits during reads
system.mem_ctrls0.writeRowHits                7362578                       # Number of row buffer hits during writes
system.mem_ctrls0.readRowHitRate                43.79                       # Row buffer hit rate for reads
system.mem_ctrls0.writeRowHitRate               65.38                       # Row buffer hit rate for writes
system.mem_ctrls0.avgGap                     26407.20                       # Average gap between requests
system.mem_ctrls0.pageHitRate                   51.25                       # Row buffer hit rate, read and write combined
system.mem_ctrls0_0.actEnergy                       0                       # Energy for activate commands per rank (pJ)
system.mem_ctrls0_0.preEnergy            20709561605.040791                       # Energy for precharge commands per rank (pJ)
system.mem_ctrls0_0.readEnergy           28408056622.078747                       # Energy for read commands per rank (pJ)
system.mem_ctrls0_0.writeEnergy           19035487296                       # Energy for write commands per rank (pJ)
system.mem_ctrls0_0.refreshEnergy        47624827854.935005                       # Energy for refresh commands per rank (pJ)
system.mem_ctrls0_0.actBackEnergy        223260663833.762665                       # Energy for active background per rank (pJ)
system.mem_ctrls0_0.preBackEnergy        3574213719.547713                       # Energy for precharge background per rank (pJ)
system.mem_ctrls0_0.actPowerDownEnergy   150464205519.359802                       # Energy for active power-down per rank (pJ)
system.mem_ctrls0_0.prePowerDownEnergy   1364372625.596332                       # Energy for precharge power-down per rank (pJ)
system.mem_ctrls0_0.selfRefreshEnergy    21847871536.320011                       # Energy for self refresh per rank (pJ)
system.mem_ctrls0_0.totalEnergy          516292317059.536316                       # Total energy per rank (pJ)
system.mem_ctrls0_0.averagePower           599.545232                       # Core power per rank (mW)
system.mem_ctrls0_0.totalIdleTime        472575398788                       # Total Idle time Per DRAM Rank
system.mem_ctrls0_0.memoryStateTime::IDLE    567937780                       # Time in different power states
system.mem_ctrls0_0.memoryStateTime::REF  26244660000                       # Time in different power states
system.mem_ctrls0_0.memoryStateTime::SREF  75056197210                       # Time in different power states
system.mem_ctrls0_0.memoryStateTime::PRE_PDN   5684798782                       # Time in different power states
system.mem_ctrls0_0.memoryStateTime::ACT 361751882122                       # Time in different power states
system.mem_ctrls0_0.memoryStateTime::ACT_PDN 391834420106                       # Time in different power states
system.mem_ctrls0_1.actEnergy                       0                       # Energy for activate commands per rank (pJ)
system.mem_ctrls0_1.preEnergy            20715421779.360851                       # Energy for precharge commands per rank (pJ)
system.mem_ctrls0_1.readEnergy           28424106302.399044                       # Energy for read commands per rank (pJ)
system.mem_ctrls0_1.writeEnergy           19072396584                       # Energy for write commands per rank (pJ)
system.mem_ctrls0_1.refreshEnergy        47618694343.655037                       # Energy for refresh commands per rank (pJ)
system.mem_ctrls0_1.actBackEnergy        224090130185.039398                       # Energy for active background per rank (pJ)
system.mem_ctrls0_1.preBackEnergy        3586225620.092228                       # Energy for precharge background per rank (pJ)
system.mem_ctrls0_1.actPowerDownEnergy   149654137643.519196                       # Energy for active power-down per rank (pJ)
system.mem_ctrls0_1.prePowerDownEnergy   1500312191.996321                       # Energy for precharge power-down per rank (pJ)
system.mem_ctrls0_1.selfRefreshEnergy    21873080790.959991                       # Energy for self refresh per rank (pJ)
system.mem_ctrls0_1.totalEnergy          516536078482.202881                       # Total energy per rank (pJ)
system.mem_ctrls0_1.averagePower           599.828300                       # Core power per rank (mW)
system.mem_ctrls0_1.totalIdleTime        471138149131                       # Total Idle time Per DRAM Rank
system.mem_ctrls0_1.memoryStateTime::IDLE    585964869                       # Time in different power states
system.mem_ctrls0_1.memoryStateTime::REF  26241280000                       # Time in different power states
system.mem_ctrls0_1.memoryStateTime::SREF  75161443480                       # Time in different power states
system.mem_ctrls0_1.memoryStateTime::PRE_PDN   6251390153                       # Time in different power states
system.mem_ctrls0_1.memoryStateTime::ACT 363174448310                       # Time in different power states
system.mem_ctrls0_1.memoryStateTime::ACT_PDN 389725369188                       # Time in different power states
system.mem_ctrls1.pwrStateResidencyTicks::UNDEFINED 919730184750                       # Cumulative time (in ticks) in various power states
system.mem_ctrls1.bytes_read::.switch_cpus_10.inst        10304                       # Number of bytes read from this memory
system.mem_ctrls1.bytes_read::.switch_cpus_10.data    341424832                       # Number of bytes read from this memory
system.mem_ctrls1.bytes_read::.switch_cpus_11.inst        10048                       # Number of bytes read from this memory
system.mem_ctrls1.bytes_read::.switch_cpus_11.data    341486144                       # Number of bytes read from this memory
system.mem_ctrls1.bytes_read::.switch_cpus_12.inst         9344                       # Number of bytes read from this memory
system.mem_ctrls1.bytes_read::.switch_cpus_12.data    341562816                       # Number of bytes read from this memory
system.mem_ctrls1.bytes_read::.switch_cpus_13.inst        10560                       # Number of bytes read from this memory
system.mem_ctrls1.bytes_read::.switch_cpus_13.data    341812352                       # Number of bytes read from this memory
system.mem_ctrls1.bytes_read::total        1366326400                       # Number of bytes read from this memory
system.mem_ctrls1.bytes_inst_read::.switch_cpus_10.inst        10304                       # Number of instructions bytes read from this memory
system.mem_ctrls1.bytes_inst_read::.switch_cpus_11.inst        10048                       # Number of instructions bytes read from this memory
system.mem_ctrls1.bytes_inst_read::.switch_cpus_12.inst         9344                       # Number of instructions bytes read from this memory
system.mem_ctrls1.bytes_inst_read::.switch_cpus_13.inst        10560                       # Number of instructions bytes read from this memory
system.mem_ctrls1.bytes_inst_read::total        40256                       # Number of instructions bytes read from this memory
system.mem_ctrls1.bytes_written::.writebacks    720723264                       # Number of bytes written to this memory
system.mem_ctrls1.bytes_written::total      720723264                       # Number of bytes written to this memory
system.mem_ctrls1.num_reads::.switch_cpus_10.inst          161                       # Number of read requests responded to by this memory
system.mem_ctrls1.num_reads::.switch_cpus_10.data      5334763                       # Number of read requests responded to by this memory
system.mem_ctrls1.num_reads::.switch_cpus_11.inst          157                       # Number of read requests responded to by this memory
system.mem_ctrls1.num_reads::.switch_cpus_11.data      5335721                       # Number of read requests responded to by this memory
system.mem_ctrls1.num_reads::.switch_cpus_12.inst          146                       # Number of read requests responded to by this memory
system.mem_ctrls1.num_reads::.switch_cpus_12.data      5336919                       # Number of read requests responded to by this memory
system.mem_ctrls1.num_reads::.switch_cpus_13.inst          165                       # Number of read requests responded to by this memory
system.mem_ctrls1.num_reads::.switch_cpus_13.data      5340818                       # Number of read requests responded to by this memory
system.mem_ctrls1.num_reads::total           21348850                       # Number of read requests responded to by this memory
system.mem_ctrls1.num_writes::.writebacks     11261301                       # Number of write requests responded to by this memory
system.mem_ctrls1.num_writes::total          11261301                       # Number of write requests responded to by this memory
system.mem_ctrls1.bw_read::.switch_cpus_10.inst        11966                       # Total read bandwidth from this memory (bytes/s)
system.mem_ctrls1.bw_read::.switch_cpus_10.data    396480101                       # Total read bandwidth from this memory (bytes/s)
system.mem_ctrls1.bw_read::.switch_cpus_11.inst        11668                       # Total read bandwidth from this memory (bytes/s)
system.mem_ctrls1.bw_read::.switch_cpus_11.data    396551300                       # Total read bandwidth from this memory (bytes/s)
system.mem_ctrls1.bw_read::.switch_cpus_12.inst        10851                       # Total read bandwidth from this memory (bytes/s)
system.mem_ctrls1.bw_read::.switch_cpus_12.data    396640335                       # Total read bandwidth from this memory (bytes/s)
system.mem_ctrls1.bw_read::.switch_cpus_13.inst        12263                       # Total read bandwidth from this memory (bytes/s)
system.mem_ctrls1.bw_read::.switch_cpus_13.data    396930109                       # Total read bandwidth from this memory (bytes/s)
system.mem_ctrls1.bw_read::total           1586648592                       # Total read bandwidth from this memory (bytes/s)
system.mem_ctrls1.bw_inst_read::.switch_cpus_10.inst        11966                       # Instruction read bandwidth from this memory (bytes/s)
system.mem_ctrls1.bw_inst_read::.switch_cpus_11.inst        11668                       # Instruction read bandwidth from this memory (bytes/s)
system.mem_ctrls1.bw_inst_read::.switch_cpus_12.inst        10851                       # Instruction read bandwidth from this memory (bytes/s)
system.mem_ctrls1.bw_inst_read::.switch_cpus_13.inst        12263                       # Instruction read bandwidth from this memory (bytes/s)
system.mem_ctrls1.bw_inst_read::total           46747                       # Instruction read bandwidth from this memory (bytes/s)
system.mem_ctrls1.bw_write::.writebacks     836940977                       # Write bandwidth from this memory (bytes/s)
system.mem_ctrls1.bw_write::total           836940977                       # Write bandwidth from this memory (bytes/s)
system.mem_ctrls1.bw_total::.writebacks     836940977                       # Total bandwidth to/from this memory (bytes/s)
system.mem_ctrls1.bw_total::.switch_cpus_10.inst        11966                       # Total bandwidth to/from this memory (bytes/s)
system.mem_ctrls1.bw_total::.switch_cpus_10.data    396480101                       # Total bandwidth to/from this memory (bytes/s)
system.mem_ctrls1.bw_total::.switch_cpus_11.inst        11668                       # Total bandwidth to/from this memory (bytes/s)
system.mem_ctrls1.bw_total::.switch_cpus_11.data    396551300                       # Total bandwidth to/from this memory (bytes/s)
system.mem_ctrls1.bw_total::.switch_cpus_12.inst        10851                       # Total bandwidth to/from this memory (bytes/s)
system.mem_ctrls1.bw_total::.switch_cpus_12.data    396640335                       # Total bandwidth to/from this memory (bytes/s)
system.mem_ctrls1.bw_total::.switch_cpus_13.inst        12263                       # Total bandwidth to/from this memory (bytes/s)
system.mem_ctrls1.bw_total::.switch_cpus_13.data    396930109                       # Total bandwidth to/from this memory (bytes/s)
system.mem_ctrls1.bw_total::total          2423589569                       # Total bandwidth to/from this memory (bytes/s)
system.mem_ctrls1.avgPriority_.writebacks::samples  11261301.00                       # Average QoS priority value for accepted requests
system.mem_ctrls1.avgPriority_.switch_cpus_10.inst::samples       161.00                       # Average QoS priority value for accepted requests
system.mem_ctrls1.avgPriority_.switch_cpus_10.data::samples   5334763.00                       # Average QoS priority value for accepted requests
system.mem_ctrls1.avgPriority_.switch_cpus_11.inst::samples       157.00                       # Average QoS priority value for accepted requests
system.mem_ctrls1.avgPriority_.switch_cpus_11.data::samples   5335721.00                       # Average QoS priority value for accepted requests
system.mem_ctrls1.avgPriority_.switch_cpus_12.inst::samples       146.00                       # Average QoS priority value for accepted requests
system.mem_ctrls1.avgPriority_.switch_cpus_12.data::samples   5336919.00                       # Average QoS priority value for accepted requests
system.mem_ctrls1.avgPriority_.switch_cpus_13.inst::samples       165.00                       # Average QoS priority value for accepted requests
system.mem_ctrls1.avgPriority_.switch_cpus_13.data::samples   5340818.00                       # Average QoS priority value for accepted requests
system.mem_ctrls1.priorityMinLatency     0.000000017860                       # per QoS priority minimum request to response latency (s)
system.mem_ctrls1.priorityMaxLatency     0.332760701640                       # per QoS priority maximum request to response latency (s)
system.mem_ctrls1.numReadWriteTurnArounds       680002                       # Number of turnarounds from READ to WRITE
system.mem_ctrls1.numWriteReadTurnArounds       680002                       # Number of turnarounds from WRITE to READ
system.mem_ctrls1.numStayReadState           46773873                       # Number of times bus staying in READ state
system.mem_ctrls1.numStayWriteState          10602071                       # Number of times bus staying in WRITE state
system.mem_ctrls1.readReqs                   21348850                       # Number of read requests accepted
system.mem_ctrls1.writeReqs                  11261301                       # Number of write requests accepted
system.mem_ctrls1.readBursts                 21348850                       # Number of DRAM read bursts, including those serviced by the write queue
system.mem_ctrls1.writeBursts                11261301                       # Number of DRAM write bursts, including those merged in the write queue
system.mem_ctrls1.bytesReadDRAM            1366326400                       # Total number of bytes read from DRAM
system.mem_ctrls1.bytesReadWrQ                      0                       # Total number of bytes read from write queue
system.mem_ctrls1.bytesWritten              720719936                       # Total number of bytes written to DRAM
system.mem_ctrls1.bytesReadSys             1366326400                       # Total read bytes from the system interface side
system.mem_ctrls1.bytesWrittenSys           720723264                       # Total written bytes from the system interface side
system.mem_ctrls1.servicedByWrQ                     0                       # Number of DRAM read bursts serviced by the write queue
system.mem_ctrls1.mergedWrBursts                    0                       # Number of DRAM write bursts merged with an existing one
system.mem_ctrls1.neitherReadNorWriteReqs            0                       # Number of requests that are neither read nor write
system.mem_ctrls1.perBankRdBursts::0           667721                       # Per bank write bursts
system.mem_ctrls1.perBankRdBursts::1           667524                       # Per bank write bursts
system.mem_ctrls1.perBankRdBursts::2           667528                       # Per bank write bursts
system.mem_ctrls1.perBankRdBursts::3           667369                       # Per bank write bursts
system.mem_ctrls1.perBankRdBursts::4           667371                       # Per bank write bursts
system.mem_ctrls1.perBankRdBursts::5           667154                       # Per bank write bursts
system.mem_ctrls1.perBankRdBursts::6           667047                       # Per bank write bursts
system.mem_ctrls1.perBankRdBursts::7           666865                       # Per bank write bursts
system.mem_ctrls1.perBankRdBursts::8           666687                       # Per bank write bursts
system.mem_ctrls1.perBankRdBursts::9           666619                       # Per bank write bursts
system.mem_ctrls1.perBankRdBursts::10          666578                       # Per bank write bursts
system.mem_ctrls1.perBankRdBursts::11          666583                       # Per bank write bursts
system.mem_ctrls1.perBankRdBursts::12          666592                       # Per bank write bursts
system.mem_ctrls1.perBankRdBursts::13          666538                       # Per bank write bursts
system.mem_ctrls1.perBankRdBursts::14          666604                       # Per bank write bursts
system.mem_ctrls1.perBankRdBursts::15          666605                       # Per bank write bursts
system.mem_ctrls1.perBankRdBursts::16          666670                       # Per bank write bursts
system.mem_ctrls1.perBankRdBursts::17          666703                       # Per bank write bursts
system.mem_ctrls1.perBankRdBursts::18          666796                       # Per bank write bursts
system.mem_ctrls1.perBankRdBursts::19          666830                       # Per bank write bursts
system.mem_ctrls1.perBankRdBursts::20          666874                       # Per bank write bursts
system.mem_ctrls1.perBankRdBursts::21          667117                       # Per bank write bursts
system.mem_ctrls1.perBankRdBursts::22          667137                       # Per bank write bursts
system.mem_ctrls1.perBankRdBursts::23          667311                       # Per bank write bursts
system.mem_ctrls1.perBankRdBursts::24          667341                       # Per bank write bursts
system.mem_ctrls1.perBankRdBursts::25          667579                       # Per bank write bursts
system.mem_ctrls1.perBankRdBursts::26          667625                       # Per bank write bursts
system.mem_ctrls1.perBankRdBursts::27          667976                       # Per bank write bursts
system.mem_ctrls1.perBankRdBursts::28          667891                       # Per bank write bursts
system.mem_ctrls1.perBankRdBursts::29          667922                       # Per bank write bursts
system.mem_ctrls1.perBankRdBursts::30          667878                       # Per bank write bursts
system.mem_ctrls1.perBankRdBursts::31          667815                       # Per bank write bursts
system.mem_ctrls1.perBankWrBursts::0           352183                       # Per bank write bursts
system.mem_ctrls1.perBankWrBursts::1           352016                       # Per bank write bursts
system.mem_ctrls1.perBankWrBursts::2           351979                       # Per bank write bursts
system.mem_ctrls1.perBankWrBursts::3           351849                       # Per bank write bursts
system.mem_ctrls1.perBankWrBursts::4           351754                       # Per bank write bursts
system.mem_ctrls1.perBankWrBursts::5           351611                       # Per bank write bursts
system.mem_ctrls1.perBankWrBursts::6           351498                       # Per bank write bursts
system.mem_ctrls1.perBankWrBursts::7           351432                       # Per bank write bursts
system.mem_ctrls1.perBankWrBursts::8           351284                       # Per bank write bursts
system.mem_ctrls1.perBankWrBursts::9           351168                       # Per bank write bursts
system.mem_ctrls1.perBankWrBursts::10          351191                       # Per bank write bursts
system.mem_ctrls1.perBankWrBursts::11          351220                       # Per bank write bursts
system.mem_ctrls1.perBankWrBursts::12          351381                       # Per bank write bursts
system.mem_ctrls1.perBankWrBursts::13          351440                       # Per bank write bursts
system.mem_ctrls1.perBankWrBursts::14          351579                       # Per bank write bursts
system.mem_ctrls1.perBankWrBursts::15          351597                       # Per bank write bursts
system.mem_ctrls1.perBankWrBursts::16          351805                       # Per bank write bursts
system.mem_ctrls1.perBankWrBursts::17          351961                       # Per bank write bursts
system.mem_ctrls1.perBankWrBursts::18          352058                       # Per bank write bursts
system.mem_ctrls1.perBankWrBursts::19          352197                       # Per bank write bursts
system.mem_ctrls1.perBankWrBursts::20          352235                       # Per bank write bursts
system.mem_ctrls1.perBankWrBursts::21          352317                       # Per bank write bursts
system.mem_ctrls1.perBankWrBursts::22          352294                       # Per bank write bursts
system.mem_ctrls1.perBankWrBursts::23          352288                       # Per bank write bursts
system.mem_ctrls1.perBankWrBursts::24          352360                       # Per bank write bursts
system.mem_ctrls1.perBankWrBursts::25          352370                       # Per bank write bursts
system.mem_ctrls1.perBankWrBursts::26          352363                       # Per bank write bursts
system.mem_ctrls1.perBankWrBursts::27          352448                       # Per bank write bursts
system.mem_ctrls1.perBankWrBursts::28          352362                       # Per bank write bursts
system.mem_ctrls1.perBankWrBursts::29          352368                       # Per bank write bursts
system.mem_ctrls1.perBankWrBursts::30          352348                       # Per bank write bursts
[...]
system.switch_cpus_13.iew.memOrderViolationEvents         2496                       # Number of memory order violations
system.switch_cpus_13.iew.predictedTakenIncorrect        27054                       # Number of branches that were predicted taken incorrectly
system.switch_cpus_13.iew.predictedNotTakenIncorrect        57299                       # Number of branches that were predicted not taken incorrectly
system.switch_cpus_13.iew.branchMispredicts        84353                       # Number of branch mispredicts detected at execute
system.switch_cpus_13.iew.iewExecutedInsts    776088686                       # Number of executed instructions
system.switch_cpus_13.iew.iewExecLoadInsts    125668629                       # Number of load instructions executed
system.switch_cpus_13.iew.iewExecSquashedInsts       107279                       # Number of squashed instructions skipped in execute
system.switch_cpus_13.iew.exec_swp                  0                       # number of swp insts executed
system.switch_cpus_13.iew.exec_nop                  0                       # number of nop insts executed
system.switch_cpus_13.iew.exec_refs         179371589                       # number of memory reference insts executed
system.switch_cpus_13.iew.exec_branches      58571169                       # Number of branches executed
system.switch_cpus_13.iew.exec_stores        53702960                       # Number of stores executed
system.switch_cpus_13.iew.exec_rate          0.225309                       # Inst execution rate
system.switch_cpus_13.iew.wb_sent           775506946                       # cumulative count of insts sent to commit
system.switch_cpus_13.iew.wb_count          775504254                       # cumulative count of insts written-back
system.switch_cpus_13.iew.wb_producers      572782944                       # num instructions producing a value
system.switch_cpus_13.iew.wb_consumers      975671022                       # num instructions consuming a value
system.switch_cpus_13.iew.wb_rate            0.225139                       # insts written-back per cycle
system.switch_cpus_13.iew.wb_fanout          0.587066                       # average fanout of values written-back
system.switch_cpus_13.commit.commitSquashedInsts      2491177                       # The number of squashed insts skipped by commit
system.switch_cpus_13.commit.commitNonSpecStalls          257                       # The number of times commit has been forced to stall to communicate backwards
system.switch_cpus_13.commit.branchMispredicts        83485                       # The number of times a branch was mispredicted
system.switch_cpus_13.commit.committed_per_cycle::samples   3444170646                       # Number of insts commited each cycle
system.switch_cpus_13.commit.committed_per_cycle::mean     0.224741                       # Number of insts commited each cycle
system.switch_cpus_13.commit.committed_per_cycle::stdev     1.067711                       # Number of insts commited each cycle
system.switch_cpus_13.commit.committed_per_cycle::underflows            0      0.00%      0.00% # Number of insts commited each cycle
system.switch_cpus_13.commit.committed_per_cycle::0   3205723096     93.08%     93.08% # Number of insts commited each cycle
system.switch_cpus_13.commit.committed_per_cycle::1     97170634      2.82%     95.90% # Number of insts commited each cycle
system.switch_cpus_13.commit.committed_per_cycle::2     24063631      0.70%     96.60% # Number of insts commited each cycle
system.switch_cpus_13.commit.committed_per_cycle::3     40375394      1.17%     97.77% # Number of insts commited each cycle
system.switch_cpus_13.commit.committed_per_cycle::4     11057003      0.32%     98.09% # Number of insts commited each cycle
system.switch_cpus_13.commit.committed_per_cycle::5     13410365      0.39%     98.48% # Number of insts commited each cycle
system.switch_cpus_13.commit.committed_per_cycle::6      9485340      0.28%     98.75% # Number of insts commited each cycle
system.switch_cpus_13.commit.committed_per_cycle::7      3650803      0.11%     98.86% # Number of insts commited each cycle
system.switch_cpus_13.commit.committed_per_cycle::8     39234380      1.14%    100.00% # Number of insts commited each cycle
system.switch_cpus_13.commit.committed_per_cycle::overflows            0      0.00%    100.00% # Number of insts commited each cycle
system.switch_cpus_13.commit.committed_per_cycle::min_value            0                       # Number of insts commited each cycle
system.switch_cpus_13.commit.committed_per_cycle::max_value            8                       # Number of insts commited each cycle
system.switch_cpus_13.commit.committed_per_cycle::total   3444170646                       # Number of insts commited each cycle
system.switch_cpus_13.commit.committedInsts    500000006                       # Number of instructions committed
system.switch_cpus_13.commit.committedOps    774046616                       # Number of ops (including micro ops) committed
system.switch_cpus_13.commit.swp_count              0                       # Number of s/w prefetches committed
system.switch_cpus_13.commit.refs           178543224                       # Number of memory references committed
system.switch_cpus_13.commit.loads          124912026                       # Number of loads committed
system.switch_cpus_13.commit.membars                0                       # Number of memory barriers committed
system.switch_cpus_13.commit.branches        58449020                       # Number of branches committed
system.switch_cpus_13.commit.vec_insts              0                       # Number of committed Vector instructions.
system.switch_cpus_13.commit.fp_insts       385292258                       # Number of committed floating point instructions.
system.switch_cpus_13.commit.int_insts      506263223                       # Number of committed integer instructions.
system.switch_cpus_13.commit.function_calls      2000964                       # Number of function calls committed.
system.switch_cpus_13.commit.op_class_0::No_OpClass        20167      0.00%      0.00% # Class of committed instruction
system.switch_cpus_13.commit.op_class_0::IntAlu    387103204     50.01%     50.01% # Class of committed instruction
system.switch_cpus_13.commit.op_class_0::IntMult           63      0.00%     50.01% # Class of committed instruction
system.switch_cpus_13.commit.op_class_0::IntDiv           42      0.00%     50.01% # Class of committed instruction
system.switch_cpus_13.commit.op_class_0::FloatAdd            9      0.00%     50.01% # Class of committed instruction
system.switch_cpus_13.commit.op_class_0::FloatCmp            0      0.00%     50.01% # Class of committed instruction
system.switch_cpus_13.commit.op_class_0::FloatCvt            0      0.00%     50.01% # Class of committed instruction
system.switch_cpus_13.commit.op_class_0::FloatMult            0      0.00%     50.01% # Class of committed instruction
system.switch_cpus_13.commit.op_class_0::FloatMultAcc            0      0.00%     50.01% # Class of committed instruction
system.switch_cpus_13.commit.op_class_0::FloatDiv            0      0.00%     50.01% # Class of committed instruction
system.switch_cpus_13.commit.op_class_0::FloatMisc            0      0.00%     50.01% # Class of committed instruction
system.switch_cpus_13.commit.op_class_0::FloatSqrt            0      0.00%     50.01% # Class of committed instruction
system.switch_cpus_13.commit.op_class_0::SimdAdd            0      0.00%     50.01% # Class of committed instruction
system.switch_cpus_13.commit.op_class_0::SimdAddAcc            0      0.00%     50.01% # Class of committed instruction
system.switch_cpus_13.commit.op_class_0::SimdAlu      2525080      0.33%     50.34% # Class of committed instruction
system.switch_cpus_13.commit.op_class_0::SimdCmp            0      0.00%     50.34% # Class of committed instruction
system.switch_cpus_13.commit.op_class_0::SimdCvt           58      0.00%     50.34% # Class of committed instruction
system.switch_cpus_13.commit.op_class_0::SimdMisc          107      0.00%     50.34% # Class of committed instruction
system.switch_cpus_13.commit.op_class_0::SimdMult            0      0.00%     50.34% # Class of committed instruction
system.switch_cpus_13.commit.op_class_0::SimdMultAcc            0      0.00%     50.34% # Class of committed instruction
system.switch_cpus_13.commit.op_class_0::SimdShift            0      0.00%     50.34% # Class of committed instruction
system.switch_cpus_13.commit.op_class_0::SimdShiftAcc            0      0.00%     50.34% # Class of committed instruction
system.switch_cpus_13.commit.op_class_0::SimdSqrt            0      0.00%     50.34% # Class of committed instruction
system.switch_cpus_13.commit.op_class_0::SimdFloatAdd    143433451     18.53%     68.87% # Class of committed instruction
system.switch_cpus_13.commit.op_class_0::SimdFloatAlu            0      0.00%     68.87% # Class of committed instruction
system.switch_cpus_13.commit.op_class_0::SimdFloatCmp      4974922      0.64%     69.51% # Class of committed instruction
system.switch_cpus_13.commit.op_class_0::SimdFloatCvt            2      0.00%     69.51% # Class of committed instruction
system.switch_cpus_13.commit.op_class_0::SimdFloatDiv      3081208      0.40%     69.91% # Class of committed instruction
system.switch_cpus_13.commit.op_class_0::SimdFloatMisc            0      0.00%     69.91% # Class of committed instruction
system.switch_cpus_13.commit.op_class_0::SimdFloatMult     54365077      7.02%     76.93% # Class of committed instruction
system.switch_cpus_13.commit.op_class_0::SimdFloatMultAcc            0      0.00%     76.93% # Class of committed instruction
system.switch_cpus_13.commit.op_class_0::SimdFloatSqrt            2      0.00%     76.93% # Class of committed instruction
system.switch_cpus_13.commit.op_class_0::SimdAes            0      0.00%     76.93% # Class of committed instruction
system.switch_cpus_13.commit.op_class_0::SimdAesMix            0      0.00%     76.93% # Class of committed instruction
system.switch_cpus_13.commit.op_class_0::SimdSha1Hash            0      0.00%     76.93% # Class of committed instruction
system.switch_cpus_13.commit.op_class_0::SimdSha1Hash2            0      0.00%     76.93% # Class of committed instruction
system.switch_cpus_13.commit.op_class_0::SimdSha256Hash            0      0.00%     76.93% # Class of committed instruction
system.switch_cpus_13.commit.op_class_0::SimdSha256Hash2            0      0.00%     76.93% # Class of committed instruction
system.switch_cpus_13.commit.op_class_0::SimdShaSigma2            0      0.00%     76.93% # Class of committed instruction
system.switch_cpus_13.commit.op_class_0::SimdShaSigma3            0      0.00%     76.93% # Class of committed instruction
system.switch_cpus_13.commit.op_class_0::MemRead     40251031      5.20%     82.13% # Class of committed instruction
system.switch_cpus_13.commit.op_class_0::MemWrite     18227756      2.35%     84.49% # Class of committed instruction
system.switch_cpus_13.commit.op_class_0::FloatMemRead     84660995     10.94%     95.43% # Class of committed instruction
system.switch_cpus_13.commit.op_class_0::FloatMemWrite     35403442      4.57%    100.00% # Class of committed instruction
system.switch_cpus_13.commit.op_class_0::IprAccess            0      0.00%    100.00% # Class of committed instruction
system.switch_cpus_13.commit.op_class_0::InstPrefetch            0      0.00%    100.00% # Class of committed instruction
system.switch_cpus_13.commit.op_class_0::total    774046616                       # Class of committed instruction
system.switch_cpus_13.commit.bw_lim_events     39234380                       # number cycles where commit BW limit reached
system.switch_cpus_13.rob.rob_reads        4181474059                       # The number of ROB reads
system.switch_cpus_13.rob.rob_writes       1553419921                       # The number of ROB writes
system.switch_cpus_13.timesIdled                  160                       # Number of times that the entire CPU went into an idle state and unscheduled itself
system.switch_cpus_13.idleCycles                44750                       # Total number of cycles that the CPU has spent unscheduled due to idling
system.switch_cpus_13.committedInsts        500000006                       # Number of Instructions Simulated
system.switch_cpus_13.committedOps          774046616                       # Number of Ops (including micro ops) Simulated
system.switch_cpus_13.cpi                    6.889119                       # CPI: Cycles Per Instruction
system.switch_cpus_13.cpi_total              6.889119                       # CPI: Total CPI of All Threads
system.switch_cpus_13.ipc                    0.145156                       # IPC: Instructions Per Cycle
system.switch_cpus_13.ipc_total              0.145156                       # IPC: Total IPC of All Threads
system.switch_cpus_13.int_regfile_reads     683463457                       # number of integer regfile reads
system.switch_cpus_13.int_regfile_writes    310325522                       # number of integer regfile writes
system.switch_cpus_13.fp_regfile_reads      772544403                       # number of floating regfile reads
system.switch_cpus_13.fp_regfile_writes     350350735                       # number of floating regfile writes
system.switch_cpus_13.cc_regfile_reads      295376249                       # number of cc regfile reads
system.switch_cpus_13.cc_regfile_writes     134705185                       # number of cc regfile writes
system.switch_cpus_13.misc_regfile_reads    304401157                       # number of misc regfile reads
system.tol3bus.snoop_filter.tot_requests     85396264                       # Total number of requests made to the snoop filter.
system.tol3bus.snoop_filter.hit_single_requests     42698074                       # Number of requests hitting in the snoop filter with a single holder of the requested data.
system.tol3bus.snoop_filter.hit_multi_requests            0                       # Number of requests hitting in the snoop filter with multiple (>1) holders of the requested data.
system.tol3bus.snoop_filter.tot_snoops           2466                       # Total number of snoops made to the snoop filter.
system.tol3bus.snoop_filter.hit_single_snoops         2466                       # Number of snoops hitting in the snoop filter with a single holder of the requested data.
system.tol3bus.snoop_filter.hit_multi_snoops            0                       # Number of snoops hitting in the snoop filter with multiple (>1) holders of the requested data.
system.tol3bus.pwrStateResidencyTicks::UNDEFINED 919730184750                       # Cumulative time (in ticks) in various power states
system.tol3bus.trans_dist::ReadResp          21101166                       # Transaction distribution
system.tol3bus.trans_dist::WritebackDirty     45015560                       # Transaction distribution
system.tol3bus.trans_dist::CleanEvict        40380187                       # Transaction distribution
system.tol3bus.trans_dist::UpgradeReq               7                       # Transaction distribution
system.tol3bus.trans_dist::UpgradeResp              7                       # Transaction distribution
system.tol3bus.trans_dist::ReadExReq         21597056                       # Transaction distribution
system.tol3bus.trans_dist::ReadExResp        21597053                       # Transaction distribution
system.tol3bus.trans_dist::ReadSharedReq     21101166                       # Transaction distribution
system.tol3bus.pkt_count_system.cpu0.l2cache.mem_side::system.l3.cpu_side     32009775                       # Packet count per connected master and slave (bytes)
system.tol3bus.pkt_count_system.cpu1.l2cache.mem_side::system.l3.cpu_side     32015407                       # Packet count per connected master and slave (bytes)
system.tol3bus.pkt_count_system.cpu2.l2cache.mem_side::system.l3.cpu_side     32022848                       # Packet count per connected master and slave (bytes)
system.tol3bus.pkt_count_system.cpu3.l2cache.mem_side::system.l3.cpu_side     32046460                       # Packet count per connected master and slave (bytes)
system.tol3bus.pkt_count::total             128094490                       # Packet count per connected master and slave (bytes)
system.tol3bus.pkt_size_system.cpu0.l2cache.mem_side::system.l3.cpu_side   1042541568                       # Cumulative packet size per connected master and slave (bytes)
system.tol3bus.pkt_size_system.cpu1.l2cache.mem_side::system.l3.cpu_side   1042758400                       # Cumulative packet size per connected master and slave (bytes)
system.tol3bus.pkt_size_system.cpu2.l2cache.mem_side::system.l3.cpu_side   1043034496                       # Cumulative packet size per connected master and slave (bytes)
system.tol3bus.pkt_size_system.cpu3.l2cache.mem_side::system.l3.cpu_side   1043903744                       # Cumulative packet size per connected master and slave (bytes)
system.tol3bus.pkt_size::total             4172238208                       # Cumulative packet size per connected master and slave (bytes)
system.tol3bus.snoops                        42697712                       # Total snoops (count)
system.tol3bus.snoopTraffic                1441443648                       # Total snoop traffic (bytes)
system.tol3bus.snoop_fanout::samples         85395941                       # Request fanout histogram
system.tol3bus.snoop_fanout::mean            0.000029                       # Request fanout histogram
system.tol3bus.snoop_fanout::stdev           0.005374                       # Request fanout histogram
system.tol3bus.snoop_fanout::underflows             0      0.00%      0.00% # Request fanout histogram
system.tol3bus.snoop_fanout::0               85393475    100.00%    100.00% # Request fanout histogram
system.tol3bus.snoop_fanout::1                   2466      0.00%    100.00% # Request fanout histogram
system.tol3bus.snoop_fanout::2                      0      0.00%    100.00% # Request fanout histogram
system.tol3bus.snoop_fanout::3                      0      0.00%    100.00% # Request fanout histogram
system.tol3bus.snoop_fanout::4                      0      0.00%    100.00% # Request fanout histogram
system.tol3bus.snoop_fanout::overflows              0      0.00%    100.00% # Request fanout histogram
system.tol3bus.snoop_fanout::min_value              0                       # Request fanout histogram
system.tol3bus.snoop_fanout::max_value              1                       # Request fanout histogram
system.tol3bus.snoop_fanout::total           85395941                       # Request fanout histogram
system.tol3bus.reqLayer0.occupancy        32595567500                       # Layer occupancy (ticks)
system.tol3bus.reqLayer0.utilization              3.8                       # Layer utilization (%)
system.tol3bus.respLayer0.occupancy        8002453249                       # Layer occupancy (ticks)
system.tol3bus.respLayer0.utilization             0.9                       # Layer utilization (%)
system.tol3bus.respLayer1.occupancy        8003862996                       # Layer occupancy (ticks)
system.tol3bus.respLayer1.utilization             0.9                       # Layer utilization (%)
system.tol3bus.respLayer2.occupancy        8005724749                       # Layer occupancy (ticks)
system.tol3bus.respLayer2.utilization             0.9                       # Layer utilization (%)
system.tol3bus.respLayer3.occupancy        8011626500                       # Layer occupancy (ticks)
system.tol3bus.respLayer3.utilization             0.9                       # Layer utilization (%)

---------- End Simulation Statistics   ----------
