
---------- Begin Simulation Statistics ----------
sim_seconds                                  0.235646                       # Number of seconds simulated
sim_ticks                                235646387690                       # Number of ticks simulated
final_tick                               294291628250                       # Number of ticks from beginning of simulation (restored from checkpoints and never reset)
sim_freq                                 1000000000000                       # Frequency of simulated ticks
host_inst_rate                                  80169                       # Simulator instruction rate (inst/s)
host_op_rate                                   152176                       # Simulator op (including micro ops) rate (op/s)
host_tick_rate                                7871214                       # Simulator tick rate (ticks/s)
host_mem_usage                               17123832                       # Number of bytes of host memory used
host_seconds                                 29937.74                       # Real time elapsed on the host
sim_insts                                  2400086030                       # Number of instructions simulated
sim_ops                                    4555819400                       # Number of ops (including micro ops) simulated
system.voltage_domain.voltage                       1                       # Voltage in Volts
system.clk_domain.clock                          1000                       # Clock period in ticks
system.mem_ctrls0.pwrStateResidencyTicks::UNDEFINED 294291628250                       # Cumulative time (in ticks) in various power states
system.mem_ctrls0.bytes_read::.switch_cpus_10.inst        28096                       # Number of bytes read from this memory
system.mem_ctrls0.bytes_read::.switch_cpus_10.data      5280704                       # Number of bytes read from this memory
system.mem_ctrls0.bytes_read::.switch_cpus_11.inst        30144                       # Number of bytes read from this memory
system.mem_ctrls0.bytes_read::.switch_cpus_11.data      5237760                       # Number of bytes read from this memory
system.mem_ctrls0.bytes_read::.switch_cpus_12.inst        28800                       # Number of bytes read from this memory
system.mem_ctrls0.bytes_read::.switch_cpus_12.data      5255744                       # Number of bytes read from this memory
system.mem_ctrls0.bytes_read::.switch_cpus_13.inst        27328                       # Number of bytes read from this memory
system.mem_ctrls0.bytes_read::.switch_cpus_13.data      5253312                       # Number of bytes read from this memory
system.mem_ctrls0.bytes_read::total          21141888                       # Number of bytes read from this memory
system.mem_ctrls0.bytes_inst_read::.switch_cpus_10.inst        28096                       # Number of instructions bytes read from this memory
system.mem_ctrls0.bytes_inst_read::.switch_cpus_11.inst        30144                       # Number of instructions bytes read from this memory
system.mem_ctrls0.bytes_inst_read::.switch_cpus_12.inst        28800                       # Number of instructions bytes read from this memory
system.mem_ctrls0.bytes_inst_read::.switch_cpus_13.inst        27328                       # Number of instructions bytes read from this memory
system.mem_ctrls0.bytes_inst_read::total       114368                       # Number of instructions bytes read from this memory
system.mem_ctrls0.bytes_written::.writebacks     17351424                       # Number of bytes written to this memory
system.mem_ctrls0.bytes_written::total       17351424                       # Number of bytes written to this memory
system.mem_ctrls0.num_reads::.switch_cpus_10.inst          439                       # Number of read requests responded to by this memory
system.mem_ctrls0.num_reads::.switch_cpus_10.data        82511                       # Number of read requests responded to by this memory
system.mem_ctrls0.num_reads::.switch_cpus_11.inst          471                       # Number of read requests responded to by this memory
system.mem_ctrls0.num_reads::.switch_cpus_11.data        81840                       # Number of read requests responded to by this memory
system.mem_ctrls0.num_reads::.switch_cpus_12.inst          450                       # Number of read requests responded to by this memory
system.mem_ctrls0.num_reads::.switch_cpus_12.data        82121                       # Number of read requests responded to by this memory
system.mem_ctrls0.num_reads::.switch_cpus_13.inst          427                       # Number of read requests responded to by this memory
system.mem_ctrls0.num_reads::.switch_cpus_13.data        82083                       # Number of read requests responded to by this memory
system.mem_ctrls0.num_reads::total             330342                       # Number of read requests responded to by this memory
system.mem_ctrls0.num_writes::.writebacks       271116                       # Number of write requests responded to by this memory
system.mem_ctrls0.num_writes::total            271116                       # Number of write requests responded to by this memory
system.mem_ctrls0.bw_read::.switch_cpus_10.inst       119229                       # Total read bandwidth from this memory (bytes/s)
system.mem_ctrls0.bw_read::.switch_cpus_10.data     22409442                       # Total read bandwidth from this memory (bytes/s)
system.mem_ctrls0.bw_read::.switch_cpus_11.inst       127920                       # Total read bandwidth from this memory (bytes/s)
system.mem_ctrls0.bw_read::.switch_cpus_11.data     22227203                       # Total read bandwidth from this memory (bytes/s)
system.mem_ctrls0.bw_read::.switch_cpus_12.inst       122217                       # Total read bandwidth from this memory (bytes/s)
system.mem_ctrls0.bw_read::.switch_cpus_12.data     22303520                       # Total read bandwidth from this memory (bytes/s)
system.mem_ctrls0.bw_read::.switch_cpus_13.inst       115970                       # Total read bandwidth from this memory (bytes/s)
system.mem_ctrls0.bw_read::.switch_cpus_13.data     22293200                       # Total read bandwidth from this memory (bytes/s)
system.mem_ctrls0.bw_read::total             89718702                       # Total read bandwidth from this memory (bytes/s)
system.mem_ctrls0.bw_inst_read::.switch_cpus_10.inst       119229                       # Instruction read bandwidth from this memory (bytes/s)
system.mem_ctrls0.bw_inst_read::.switch_cpus_11.inst       127920                       # Instruction read bandwidth from this memory (bytes/s)
system.mem_ctrls0.bw_inst_read::.switch_cpus_12.inst       122217                       # Instruction read bandwidth from this memory (bytes/s)
system.mem_ctrls0.bw_inst_read::.switch_cpus_13.inst       115970                       # Instruction read bandwidth from this memory (bytes/s)
system.mem_ctrls0.bw_inst_read::total          485337                       # Instruction read bandwidth from this memory (bytes/s)
system.mem_ctrls0.bw_write::.writebacks      73633312                       # Write bandwidth from this memory (bytes/s)
system.mem_ctrls0.bw_write::total            73633312                       # Write bandwidth from this memory (bytes/s)
system.mem_ctrls0.bw_total::.writebacks      73633312                       # Total bandwidth to/from this memory (bytes/s)
system.mem_ctrls0.bw_total::.switch_cpus_10.inst       119229                       # Total bandwidth to/from this memory (bytes/s)
system.mem_ctrls0.bw_total::.switch_cpus_10.data     22409442                       # Total bandwidth to/from this memory (bytes/s)
system.mem_ctrls0.bw_total::.switch_cpus_11.inst       127920                       # Total bandwidth to/from this memory (bytes/s)
system.mem_ctrls0.bw_total::.switch_cpus_11.data     22227203                       # Total bandwidth to/from this memory (bytes/s)
system.mem_ctrls0.bw_total::.switch_cpus_12.inst       122217                       # Total bandwidth to/from this memory (bytes/s)
system.mem_ctrls0.bw_total::.switch_cpus_12.data     22303520                       # Total bandwidth to/from this memory (bytes/s)
system.mem_ctrls0.bw_total::.switch_cpus_13.inst       115970                       # Total bandwidth to/from this memory (bytes/s)
system.mem_ctrls0.bw_total::.switch_cpus_13.data     22293200                       # Total bandwidth to/from this memory (bytes/s)
system.mem_ctrls0.bw_total::total           163352014                       # Total bandwidth to/from this memory (bytes/s)
system.mem_ctrls0.avgPriority_.writebacks::samples    271116.00                       # Average QoS priority value for accepted requests
system.mem_ctrls0.avgPriority_.switch_cpus_10.inst::samples       439.00                       # Average QoS priority value for accepted requests
system.mem_ctrls0.avgPriority_.switch_cpus_10.data::samples     82507.00                       # Average QoS priority value for accepted requests
system.mem_ctrls0.avgPriority_.switch_cpus_11.inst::samples       471.00                       # Average QoS priority value for accepted requests
system.mem_ctrls0.avgPriority_.switch_cpus_11.data::samples     81835.00                       # Average QoS priority value for accepted requests
system.mem_ctrls0.avgPriority_.switch_cpus_12.inst::samples       450.00                       # Average QoS priority value for accepted requests
system.mem_ctrls0.avgPriority_.switch_cpus_12.data::samples     82112.00                       # Average QoS priority value for accepted requests
system.mem_ctrls0.avgPriority_.switch_cpus_13.inst::samples       427.00                       # Average QoS priority value for accepted requests
system.mem_ctrls0.avgPriority_.switch_cpus_13.data::samples     82081.00                       # Average QoS priority value for accepted requests
system.mem_ctrls0.priorityMinLatency     0.000000017860                       # per QoS priority minimum request to response latency (s)
system.mem_ctrls0.priorityMaxLatency     0.001155078540                       # per QoS priority maximum request to response latency (s)
system.mem_ctrls0.numReadWriteTurnArounds        15332                       # Number of turnarounds from READ to WRITE
system.mem_ctrls0.numWriteReadTurnArounds        15332                       # Number of turnarounds from WRITE to READ
system.mem_ctrls0.numStayReadState             978295                       # Number of times bus staying in READ state
system.mem_ctrls0.numStayWriteState            255780                       # Number of times bus staying in WRITE state
system.mem_ctrls0.readReqs                     330342                       # Number of read requests accepted
system.mem_ctrls0.writeReqs                    271116                       # Number of write requests accepted
system.mem_ctrls0.readBursts                   330342                       # Number of DRAM read bursts, including those serviced by the write queue
system.mem_ctrls0.writeBursts                  271116                       # Number of DRAM write bursts, including those merged in the write queue
system.mem_ctrls0.bytesReadDRAM              21140608                       # Total number of bytes read from DRAM
system.mem_ctrls0.bytesReadWrQ                   1280                       # Total number of bytes read from write queue
system.mem_ctrls0.bytesWritten               17347648                       # Total number of bytes written to DRAM
system.mem_ctrls0.bytesReadSys               21141888                       # Total read bytes from the system interface side
system.mem_ctrls0.bytesWrittenSys            17351424                       # Total written bytes from the system interface side
system.mem_ctrls0.servicedByWrQ                    20                       # Number of DRAM read bursts serviced by the write queue
system.mem_ctrls0.mergedWrBursts                    0                       # Number of DRAM write bursts merged with an existing one
system.mem_ctrls0.neitherReadNorWriteReqs            0                       # Number of requests that are neither read nor write
system.mem_ctrls0.perBankRdBursts::0            10286                       # Per bank write bursts
system.mem_ctrls0.perBankRdBursts::1            10496                       # Per bank write bursts
system.mem_ctrls0.perBankRdBursts::2            10369                       # Per bank write bursts
system.mem_ctrls0.perBankRdBursts::3            10473                       # Per bank write bursts
system.mem_ctrls0.perBankRdBursts::4            10340                       # Per bank write bursts
system.mem_ctrls0.perBankRdBursts::5            10200                       # Per bank write bursts
system.mem_ctrls0.perBankRdBursts::6            10130                       # Per bank write bursts
system.mem_ctrls0.perBankRdBursts::7            10066                       # Per bank write bursts
system.mem_ctrls0.perBankRdBursts::8            10201                       # Per bank write bursts
system.mem_ctrls0.perBankRdBursts::9            10406                       # Per bank write bursts
system.mem_ctrls0.perBankRdBursts::10           10482                       # Per bank write bursts
system.mem_ctrls0.perBankRdBursts::11           10351                       # Per bank write bursts
system.mem_ctrls0.perBankRdBursts::12           10210                       # Per bank write bursts
system.mem_ctrls0.perBankRdBursts::13           10360                       # Per bank write bursts
system.mem_ctrls0.perBankRdBursts::14           10374                       # Per bank write bursts
system.mem_ctrls0.perBankRdBursts::15           10165                       # Per bank write bursts
system.mem_ctrls0.perBankRdBursts::16           10178                       # Per bank write bursts
system.mem_ctrls0.perBankRdBursts::17           10340                       # Per bank write bursts
system.mem_ctrls0.perBankRdBursts::18           10417                       # Per bank write bursts
system.mem_ctrls0.perBankRdBursts::19           10153                       # Per bank write bursts
system.mem_ctrls0.perBankRdBursts::20           10252                       # Per bank write bursts
system.mem_ctrls0.perBankRdBursts::21           10341                       # Per bank write bursts
system.mem_ctrls0.perBankRdBursts::22           10055                       # Per bank write bursts
system.mem_ctrls0.perBankRdBursts::23           10408                       # Per bank write bursts
system.mem_ctrls0.perBankRdBursts::24           10460                       # Per bank write bursts
system.mem_ctrls0.perBankRdBursts::25           10299                       # Per bank write bursts
system.mem_ctrls0.perBankRdBursts::26           10391                       # Per bank write bursts
system.mem_ctrls0.perBankRdBursts::27           10422                       # Per bank write bursts
system.mem_ctrls0.perBankRdBursts::28           10657                       # Per bank write bursts
system.mem_ctrls0.perBankRdBursts::29           10473                       # Per bank write bursts
system.mem_ctrls0.perBankRdBursts::30           10179                       # Per bank write bursts
system.mem_ctrls0.perBankRdBursts::31           10388                       # Per bank write bursts
system.mem_ctrls0.perBankWrBursts::0             8518                       # Per bank write bursts
system.mem_ctrls0.perBankWrBursts::1             8510                       # Per bank write bursts
system.mem_ctrls0.perBankWrBursts::2             8393                       # Per bank write bursts
system.mem_ctrls0.perBankWrBursts::3             8688                       # Per bank write bursts
system.mem_ctrls0.perBankWrBursts::4             8417                       # Per bank write bursts
system.mem_ctrls0.perBankWrBursts::5             8361                       # Per bank write bursts
system.mem_ctrls0.perBankWrBursts::6             8419                       # Per bank write bursts
system.mem_ctrls0.perBankWrBursts::7             8394                       # Per bank write bursts
system.mem_ctrls0.perBankWrBursts::8             8507                       # Per bank write bursts
system.mem_ctrls0.perBankWrBursts::9             8554                       # Per bank write bursts
system.mem_ctrls0.perBankWrBursts::10            8464                       # Per bank write bursts
system.mem_ctrls0.perBankWrBursts::11            8519                       # Per bank write bursts
system.mem_ctrls0.perBankWrBursts::12            8407                       # Per bank write bursts
system.mem_ctrls0.perBankWrBursts::13            8470                       # Per bank write bursts
system.mem_ctrls0.perBankWrBursts::14            8533                       # Per bank write bursts
system.mem_ctrls0.perBankWrBursts::15            8415                       # Per bank write bursts
system.mem_ctrls0.perBankWrBursts::16            8438                       # Per bank write bursts
system.mem_ctrls0.perBankWrBursts::17            8481                       # Per bank write bursts
system.mem_ctrls0.perBankWrBursts::18            8444                       # Per bank write bursts
system.mem_ctrls0.perBankWrBursts::19            8285                       # Per bank write bursts
system.mem_ctrls0.perBankWrBursts::20            8320                       # Per bank write bursts
system.mem_ctrls0.perBankWrBursts::21            8421                       # Per bank write bursts
system.mem_ctrls0.perBankWrBursts::22            8365                       # Per bank write bursts
system.mem_ctrls0.perBankWrBursts::23            8545                       # Per bank write bursts
system.mem_ctrls0.perBankWrBursts::24            8517                       # Per bank write bursts
system.mem_ctrls0.perBankWrBursts::25            8406                       # Per bank write bursts
system.mem_ctrls0.perBankWrBursts::26            8481                       # Per bank write bursts
system.mem_ctrls0.perBankWrBursts::27            8514                       # Per bank write bursts
system.mem_ctrls0.perBankWrBursts::28            8624                       # Per bank write bursts
system.mem_ctrls0.perBankWrBursts::29            8550                       # Per bank write bursts
system.mem_ctrls0.perBankWrBursts::30            8498                       # Per bank write bursts
system.mem_ctrls0.perBankWrBursts::31            8599                       # Per bank write bursts
system.mem_ctrls0.numRdRetry                        0                       # Number of times read queue was full causing retry
system.mem_ctrls0.numWrRetry                        0                       # Number of times write queue was full causing retry
system.mem_ctrls0.totGap                 235661192750                       # Total gap between requests
system.mem_ctrls0.readPktSize::0                    0                       # Read request sizes (log2)
system.mem_ctrls0.readPktSize::1                    0                       # Read request sizes (log2)
system.mem_ctrls0.readPktSize::2                    0                       # Read request sizes (log2)
system.mem_ctrls0.readPktSize::3                    0                       # Read request sizes (log2)
system.mem_ctrls0.readPktSize::4                    0                       # Read request sizes (log2)
system.mem_ctrls0.readPktSize::5                    0                       # Read request sizes (log2)
system.mem_ctrls0.readPktSize::6               330342                       # Read request sizes (log2)
system.mem_ctrls0.writePktSize::0                   0                       # Write request sizes (log2)
system.mem_ctrls0.writePktSize::1                   0                       # Write request sizes (log2)
system.mem_ctrls0.writePktSize::2                   0                       # Write request sizes (log2)
system.mem_ctrls0.writePktSize::3                   0                       # Write request sizes (log2)
system.mem_ctrls0.writePktSize::4                   0                       # Write request sizes (log2)
system.mem_ctrls0.writePktSize::5                   0                       # Write request sizes (log2)
system.mem_ctrls0.writePktSize::6              271116                       # Write request sizes (log2)
system.mem_ctrls0.rdQLenPdf::0                 286045                       # What read queue length does an incoming req see
system.mem_ctrls0.rdQLenPdf::1                  40851                       # What read queue length does an incoming req see
system.mem_ctrls0.rdQLenPdf::2                   3044                       # What read queue length does an incoming req see
system.mem_ctrls0.rdQLenPdf::3                    334                       # What read queue length does an incoming req see
system.mem_ctrls0.rdQLenPdf::4                     30                       # What read queue length does an incoming req see
system.mem_ctrls0.rdQLenPdf::5                     10                       # What read queue length does an incoming req see
system.mem_ctrls0.rdQLenPdf::6                      4                       # What read queue length does an incoming req see
system.mem_ctrls0.rdQLenPdf::7                      1                       # What read queue length does an incoming req see
system.mem_ctrls0.rdQLenPdf::8                      1                       # What read queue length does an incoming req see
system.mem_ctrls0.rdQLenPdf::9                      2                       # What read queue length does an incoming req see
system.mem_ctrls0.rdQLenPdf::10                     0                       # What read queue length does an incoming req see
system.mem_ctrls0.rdQLenPdf::11                     0                       # What read queue length does an incoming req see
system.mem_ctrls0.rdQLenPdf::12                     0                       # What read queue length does an incoming req see
system.mem_ctrls0.rdQLenPdf::13                     0                       # What read queue length does an incoming req see
system.mem_ctrls0.rdQLenPdf::14                     0                       # What read queue length does an incoming req see
system.mem_ctrls0.rdQLenPdf::15                     0                       # What read queue length does an incoming req see
system.mem_ctrls0.rdQLenPdf::16                     0                       # What read queue length does an incoming req see
system.mem_ctrls0.rdQLenPdf::17                     0                       # What read queue length does an incoming req see
system.mem_ctrls0.rdQLenPdf::18                     0                       # What read queue length does an incoming req see
system.mem_ctrls0.rdQLenPdf::19                     0                       # What read queue length does an incoming req see
system.mem_ctrls0.rdQLenPdf::20                     0                       # What read queue length does an incoming req see
system.mem_ctrls0.rdQLenPdf::21                     0                       # What read queue length does an incoming req see
system.mem_ctrls0.rdQLenPdf::22                     0                       # What read queue length does an incoming req see
system.mem_ctrls0.rdQLenPdf::23                     0                       # What read queue length does an incoming req see
system.mem_ctrls0.rdQLenPdf::24                     0                       # What read queue length does an incoming req see
system.mem_ctrls0.rdQLenPdf::25                     0                       # What read queue length does an incoming req see
system.mem_ctrls0.rdQLenPdf::26                     0                       # What read queue length does an incoming req see
system.mem_ctrls0.rdQLenPdf::27                     0                       # What read queue length does an incoming req see
system.mem_ctrls0.rdQLenPdf::28                     0                       # What read queue length does an incoming req see
system.mem_ctrls0.rdQLenPdf::29                     0                       # What read queue length does an incoming req see
system.mem_ctrls0.rdQLenPdf::30                     0                       # What read queue length does an incoming req see
system.mem_ctrls0.rdQLenPdf::31                     0                       # What read queue length does an incoming req see
system.mem_ctrls0.rdQLenPdf::32                     0                       # What read queue length does an incoming req see
system.mem_ctrls0.rdQLenPdf::33                     0                       # What read queue length does an incoming req see
system.mem_ctrls0.rdQLenPdf::34                     0                       # What read queue length does an incoming req see
system.mem_ctrls0.rdQLenPdf::35                     0                       # What read queue length does an incoming req see
system.mem_ctrls0.rdQLenPdf::36                     0                       # What read queue length does an incoming req see
system.mem_ctrls0.rdQLenPdf::37                     0                       # What read queue length does an incoming req see
system.mem_ctrls0.rdQLenPdf::38                     0                       # What read queue length does an incoming req see
system.mem_ctrls0.rdQLenPdf::39                     0                       # What read queue length does an incoming req see
system.mem_ctrls0.rdQLenPdf::40                     0                       # What read queue length does an incoming req see
system.mem_ctrls0.rdQLenPdf::41                     0                       # What read queue length does an incoming req see
system.mem_ctrls0.rdQLenPdf::42                     0                       # What read queue length does an incoming req see
system.mem_ctrls0.rdQLenPdf::43                     0                       # What read queue length does an incoming req see
system.mem_ctrls0.rdQLenPdf::44                     0                       # What read queue length does an incoming req see
system.mem_ctrls0.rdQLenPdf::45                     0                       # What read queue length does an incoming req see
system.mem_ctrls0.rdQLenPdf::46                     0                       # What read queue length does an incoming req see
system.mem_ctrls0.rdQLenPdf::47                     0                       # What read queue length does an incoming req see
system.mem_ctrls0.rdQLenPdf::48                     0                       # What read queue length does an incoming req see
system.mem_ctrls0.rdQLenPdf::49                     0                       # What read queue length does an incoming req see
system.mem_ctrls0.rdQLenPdf::50                     0                       # What read queue length does an incoming req see
system.mem_ctrls0.rdQLenPdf::51                     0                       # What read queue length does an incoming req see
system.mem_ctrls0.rdQLenPdf::52                     0                       # What read queue length does an incoming req see
system.mem_ctrls0.rdQLenPdf::53                     0                       # What read queue length does an incoming req see
system.mem_ctrls0.rdQLenPdf::54                     0                       # What read queue length does an incoming req see
system.mem_ctrls0.rdQLenPdf::55                     0                       # What read queue length does an incoming req see
system.mem_ctrls0.rdQLenPdf::56                     0                       # What read queue length does an incoming req see
system.mem_ctrls0.rdQLenPdf::57                     0                       # What read queue length does an incoming req see
system.mem_ctrls0.rdQLenPdf::58                     0                       # What read queue length does an incoming req see
system.mem_ctrls0.rdQLenPdf::59                     0                       # What read queue length does an incoming req see
system.mem_ctrls0.rdQLenPdf::60                     0                       # What read queue length does an incoming req see
system.mem_ctrls0.rdQLenPdf::61                     0                       # What read queue length does an incoming req see
system.mem_ctrls0.rdQLenPdf::62                     0                       # What read queue length does an incoming req see
system.mem_ctrls0.rdQLenPdf::63                     0                       # What read queue length does an incoming req see
system.mem_ctrls0.wrQLenPdf::0                      1                       # What write queue length does an incoming req see
system.mem_ctrls0.wrQLenPdf::1                      1                       # What write queue length does an incoming req see
system.mem_ctrls0.wrQLenPdf::2                      1                       # What write queue length does an incoming req see
system.mem_ctrls0.wrQLenPdf::3                      1                       # What write queue length does an incoming req see
system.mem_ctrls0.wrQLenPdf::4                      1                       # What write queue length does an incoming req see
system.mem_ctrls0.wrQLenPdf::5                      1                       # What write queue length does an incoming req see
system.mem_ctrls0.wrQLenPdf::6                      1                       # What write queue length does an incoming req see
system.mem_ctrls0.wrQLenPdf::7                      1                       # What write queue length does an incoming req see
system.mem_ctrls0.wrQLenPdf::8                      1                       # What write queue length does an incoming req see
system.mem_ctrls0.wrQLenPdf::9                      1                       # What write queue length does an incoming req see
system.mem_ctrls0.wrQLenPdf::10                     1                       # What write queue length does an incoming req see
system.mem_ctrls0.wrQLenPdf::11                     1                       # What write queue length does an incoming req see
system.mem_ctrls0.wrQLenPdf::12                     1                       # What write queue length does an incoming req see
system.mem_ctrls0.wrQLenPdf::13                     1                       # What write queue length does an incoming req see
system.mem_ctrls0.wrQLenPdf::14                     1                       # What write queue length does an incoming req see
system.mem_ctrls0.wrQLenPdf::15                     1                       # What write queue length does an incoming req see
system.mem_ctrls0.wrQLenPdf::16                     1                       # What write queue length does an incoming req see
system.mem_ctrls0.wrQLenPdf::17                     1                       # What write queue length does an incoming req see
system.mem_ctrls0.wrQLenPdf::18                     1                       # What write queue length does an incoming req see
system.mem_ctrls0.wrQLenPdf::19                     1                       # What write queue length does an incoming req see
system.mem_ctrls0.wrQLenPdf::20                     1                       # What write queue length does an incoming req see
system.mem_ctrls0.wrQLenPdf::21                     1                       # What write queue length does an incoming req see
system.mem_ctrls0.wrQLenPdf::22                     1                       # What write queue length does an incoming req see
system.mem_ctrls0.wrQLenPdf::23                     1                       # What write queue length does an incoming req see
system.mem_ctrls0.wrQLenPdf::24                     1                       # What write queue length does an incoming req see
system.mem_ctrls0.wrQLenPdf::25                     1                       # What write queue length does an incoming req see
system.mem_ctrls0.wrQLenPdf::26                     1                       # What write queue length does an incoming req see
system.mem_ctrls0.wrQLenPdf::27                     1                       # What write queue length does an incoming req see
system.mem_ctrls0.wrQLenPdf::28                     1                       # What write queue length does an incoming req see
system.mem_ctrls0.wrQLenPdf::29                     1                       # What write queue length does an incoming req see
system.mem_ctrls0.wrQLenPdf::30                     1                       # What write queue length does an incoming req see
system.mem_ctrls0.wrQLenPdf::31                     1                       # What write queue length does an incoming req see
system.mem_ctrls0.wrQLenPdf::32                     1                       # What write queue length does an incoming req see
system.mem_ctrls0.wrQLenPdf::33                     1                       # What write queue length does an incoming req see
system.mem_ctrls0.wrQLenPdf::34                     1                       # What write queue length does an incoming req see
system.mem_ctrls0.wrQLenPdf::35                     1                       # What write queue length does an incoming req see
system.mem_ctrls0.wrQLenPdf::36                     1                       # What write queue length does an incoming req see
system.mem_ctrls0.wrQLenPdf::37                     1                       # What write queue length does an incoming req see
system.mem_ctrls0.wrQLenPdf::38                     1                       # What write queue length does an incoming req see
system.mem_ctrls0.wrQLenPdf::39                     1                       # What write queue length does an incoming req see
system.mem_ctrls0.wrQLenPdf::40                     1                       # What write queue length does an incoming req see
system.mem_ctrls0.wrQLenPdf::41                     1                       # What write queue length does an incoming req see
system.mem_ctrls0.wrQLenPdf::42                     1                       # What write queue length does an incoming req see
system.mem_ctrls0.wrQLenPdf::43                     1                       # What write queue length does an incoming req see
system.mem_ctrls0.wrQLenPdf::44                     1                       # What write queue length does an incoming req see
system.mem_ctrls0.wrQLenPdf::45                     1                       # What write queue length does an incoming req see
system.mem_ctrls0.wrQLenPdf::46                     1                       # What write queue length does an incoming req see
system.mem_ctrls0.wrQLenPdf::47                 11865                       # What write queue length does an incoming req see
system.mem_ctrls0.wrQLenPdf::48                 12163                       # What write queue length does an incoming req see
system.mem_ctrls0.wrQLenPdf::49                 15023                       # What write queue length does an incoming req see
system.mem_ctrls0.wrQLenPdf::50                 15369                       # What write queue length does an incoming req see
system.mem_ctrls0.wrQLenPdf::51                 15385                       # What write queue length does an incoming req see
system.mem_ctrls0.wrQLenPdf::52                 15433                       # What write queue length does an incoming req see
system.mem_ctrls0.wrQLenPdf::53                 15401                       # What write queue length does an incoming req see
system.mem_ctrls0.wrQLenPdf::54                 15390                       # What write queue length does an incoming req see
system.mem_ctrls0.wrQLenPdf::55                 15392                       # What write queue length does an incoming req see
system.mem_ctrls0.wrQLenPdf::56                 15454                       # What write queue length does an incoming req see
system.mem_ctrls0.wrQLenPdf::57                 15428                       # What write queue length does an incoming req see
system.mem_ctrls0.wrQLenPdf::58                 15427                       # What write queue length does an incoming req see
system.mem_ctrls0.wrQLenPdf::59                 15493                       # What write queue length does an incoming req see
system.mem_ctrls0.wrQLenPdf::60                 15650                       # What write queue length does an incoming req see
system.mem_ctrls0.wrQLenPdf::61                 16170                       # What write queue length does an incoming req see
system.mem_ctrls0.wrQLenPdf::62                 15337                       # What write queue length does an incoming req see
system.mem_ctrls0.wrQLenPdf::63                 15333                       # What write queue length does an incoming req see
system.mem_ctrls0.wrQLenPdf::64                 15336                       # What write queue length does an incoming req see
system.mem_ctrls0.wrQLenPdf::65                    17                       # What write queue length does an incoming req see
system.mem_ctrls0.wrQLenPdf::66                     3                       # What write queue length does an incoming req see
system.mem_ctrls0.wrQLenPdf::67                     0                       # What write queue length does an incoming req see
system.mem_ctrls0.wrQLenPdf::68                     0                       # What write queue length does an incoming req see
system.mem_ctrls0.wrQLenPdf::69                     0                       # What write queue length does an incoming req see
system.mem_ctrls0.wrQLenPdf::70                     0                       # What write queue length does an incoming req see
system.mem_ctrls0.wrQLenPdf::71                     0                       # What write queue length does an incoming req see
system.mem_ctrls0.wrQLenPdf::72                     0                       # What write queue length does an incoming req see
system.mem_ctrls0.wrQLenPdf::73                     0                       # What write queue length does an incoming req see
system.mem_ctrls0.wrQLenPdf::74                     0                       # What write queue length does an incoming req see
system.mem_ctrls0.wrQLenPdf::75                     0                       # What write queue length does an incoming req see
system.mem_ctrls0.wrQLenPdf::76                     0                       # What write queue length does an incoming req see
system.mem_ctrls0.wrQLenPdf::77                     0                       # What write queue length does an incoming req see
system.mem_ctrls0.wrQLenPdf::78                     0                       # What write queue length does an incoming req see
system.mem_ctrls0.wrQLenPdf::79                     0                       # What write queue length does an incoming req see
system.mem_ctrls0.wrQLenPdf::80                     0                       # What write queue length does an incoming req see
system.mem_ctrls0.wrQLenPdf::81                     0                       # What write queue length does an incoming req see
system.mem_ctrls0.wrQLenPdf::82                     0                       # What write queue length does an incoming req see
system.mem_ctrls0.wrQLenPdf::83                     0                       # What write queue length does an incoming req see
system.mem_ctrls0.wrQLenPdf::84                     0                       # What write queue length does an incoming req see
system.mem_ctrls0.wrQLenPdf::85                     0                       # What write queue length does an incoming req see
system.mem_ctrls0.wrQLenPdf::86                     0                       # What write queue length does an incoming req see
system.mem_ctrls0.wrQLenPdf::87                     0                       # What write queue length does an incoming req see
system.mem_ctrls0.wrQLenPdf::88                     0                       # What write queue length does an incoming req see
system.mem_ctrls0.wrQLenPdf::89                     0                       # What write queue length does an incoming req see
system.mem_ctrls0.wrQLenPdf::90                     0                       # What write queue length does an incoming req see
system.mem_ctrls0.wrQLenPdf::91                     0                       # What write queue length does an incoming req see
system.mem_ctrls0.wrQLenPdf::92                     0                       # What write queue length does an incoming req see
system.mem_ctrls0.wrQLenPdf::93                     0                       # What write queue length does an incoming req see
system.mem_ctrls0.wrQLenPdf::94                     0                       # What write queue length does an incoming req see
system.mem_ctrls0.wrQLenPdf::95                     0                       # What write queue length does an incoming req see
system.mem_ctrls0.wrQLenPdf::96                     0                       # What write queue length does an incoming req see
system.mem_ctrls0.wrQLenPdf::97                     0                       # What write queue length does an incoming req see
system.mem_ctrls0.wrQLenPdf::98                     0                       # What write queue length does an incoming req see
system.mem_ctrls0.wrQLenPdf::99                     0                       # What write queue length does an incoming req see
system.mem_ctrls0.wrQLenPdf::100                    0                       # What write queue length does an incoming req see
system.mem_ctrls0.wrQLenPdf::101                    0                       # What write queue length does an incoming req see
system.mem_ctrls0.wrQLenPdf::102                    0                       # What write queue length does an incoming req see
system.mem_ctrls0.wrQLenPdf::103                    0                       # What write queue length does an incoming req see
system.mem_ctrls0.wrQLenPdf::104                    0                       # What write queue length does an incoming req see
system.mem_ctrls0.wrQLenPdf::105                    0                       # What write queue length does an incoming req see
system.mem_ctrls0.wrQLenPdf::106                    0                       # What write queue length does an incoming req see
system.mem_ctrls0.wrQLenPdf::107                    0                       # What write queue length does an incoming req see
system.mem_ctrls0.wrQLenPdf::108                    0                       # What write queue length does an incoming req see
system.mem_ctrls0.wrQLenPdf::109                    0                       # What write queue length does an incoming req see
system.mem_ctrls0.wrQLenPdf::110                    0                       # What write queue length does an incoming req see
system.mem_ctrls0.wrQLenPdf::111                    0                       # What write queue length does an incoming req see
system.mem_ctrls0.wrQLenPdf::112                    0                       # What write queue length does an incoming req see
system.mem_ctrls0.wrQLenPdf::113                    0                       # What write queue length does an incoming req see
system.mem_ctrls0.wrQLenPdf::114                    0                       # What write queue length does an incoming req see
system.mem_ctrls0.wrQLenPdf::115                    0                       # What write queue length does an incoming req see
system.mem_ctrls0.wrQLenPdf::116                    0                       # What write queue length does an incoming req see
system.mem_ctrls0.wrQLenPdf::117                    0                       # What write queue length does an incoming req see
system.mem_ctrls0.wrQLenPdf::118                    0                       # What write queue length does an incoming req see
system.mem_ctrls0.wrQLenPdf::119                    0                       # What write queue length does an incoming req see
system.mem_ctrls0.wrQLenPdf::120                    0                       # What write queue length does an incoming req see
system.mem_ctrls0.wrQLenPdf::121                    0                       # What write queue length does an incoming req see
system.mem_ctrls0.wrQLenPdf::122                    0                       # What write queue length does an incoming req see
system.mem_ctrls0.wrQLenPdf::123                    0                       # What write queue length does an incoming req see
system.mem_ctrls0.wrQLenPdf::124                    0                       # What write queue length does an incoming req see
system.mem_ctrls0.wrQLenPdf::125                    0                       # What write queue length does an incoming req see
system.mem_ctrls0.wrQLenPdf::126                    0                       # What write queue length does an incoming req see
system.mem_ctrls0.wrQLenPdf::127                    0                       # What write queue length does an incoming req see
system.mem_ctrls0.bytesPerActivate::samples       588763                       # Bytes accessed per row activation
system.mem_ctrls0.bytesPerActivate::mean    65.371282                       # Bytes accessed per row activation
system.mem_ctrls0.bytesPerActivate::gmean    64.915121                       # Bytes accessed per row activation
system.mem_ctrls0.bytesPerActivate::stdev    10.668039                       # Bytes accessed per row activation
system.mem_ctrls0.bytesPerActivate::64-127       577237     98.04%     98.04% # Bytes accessed per row activation
system.mem_ctrls0.bytesPerActivate::128-191        10852      1.84%     99.89% # Bytes accessed per row activation
system.mem_ctrls0.bytesPerActivate::192-255          481      0.08%     99.97% # Bytes accessed per row activation
system.mem_ctrls0.bytesPerActivate::256-319           99      0.02%     99.98% # Bytes accessed per row activation
system.mem_ctrls0.bytesPerActivate::320-383           37      0.01%     99.99% # Bytes accessed per row activation
system.mem_ctrls0.bytesPerActivate::384-447           25      0.00%     99.99% # Bytes accessed per row activation
system.mem_ctrls0.bytesPerActivate::448-511           14      0.00%    100.00% # Bytes accessed per row activation
system.mem_ctrls0.bytesPerActivate::512-575            7      0.00%    100.00% # Bytes accessed per row activation
system.mem_ctrls0.bytesPerActivate::576-639            7      0.00%    100.00% # Bytes accessed per row activation
system.mem_ctrls0.bytesPerActivate::640-703            2      0.00%    100.00% # Bytes accessed per row activation
system.mem_ctrls0.bytesPerActivate::832-895            2      0.00%    100.00% # Bytes accessed per row activation
system.mem_ctrls0.bytesPerActivate::total       588763                       # Bytes accessed per row activation
system.mem_ctrls0.rdPerTurnAround::samples        15332                       # Reads before turning the bus around for writes
system.mem_ctrls0.rdPerTurnAround::mean     21.543504                       # Reads before turning the bus around for writes
system.mem_ctrls0.rdPerTurnAround::gmean    20.845802                       # Reads before turning the bus around for writes
system.mem_ctrls0.rdPerTurnAround::stdev     5.480833                       # Reads before turning the bus around for writes
system.mem_ctrls0.rdPerTurnAround::6                3      0.02%      0.02% # Reads before turning the bus around for writes
system.mem_ctrls0.rdPerTurnAround::7                5      0.03%      0.05% # Reads before turning the bus around for writes
system.mem_ctrls0.rdPerTurnAround::8               16      0.10%      0.16% # Reads before turning the bus around for writes
system.mem_ctrls0.rdPerTurnAround::9               32      0.21%      0.37% # Reads before turning the bus around for writes
system.mem_ctrls0.rdPerTurnAround::10              85      0.55%      0.92% # Reads before turning the bus around for writes
system.mem_ctrls0.rdPerTurnAround::11             124      0.81%      1.73% # Reads before turning the bus around for writes
system.mem_ctrls0.rdPerTurnAround::12             197      1.28%      3.01% # Reads before turning the bus around for writes
system.mem_ctrls0.rdPerTurnAround::13             351      2.29%      5.30% # Reads before turning the bus around for writes
system.mem_ctrls0.rdPerTurnAround::14             489      3.19%      8.49% # Reads before turning the bus around for writes
system.mem_ctrls0.rdPerTurnAround::15             630      4.11%     12.60% # Reads before turning the bus around for writes
system.mem_ctrls0.rdPerTurnAround::16             813      5.30%     17.90% # Reads before turning the bus around for writes
system.mem_ctrls0.rdPerTurnAround::17             930      6.07%     23.97% # Reads before turning the bus around for writes
system.mem_ctrls0.rdPerTurnAround::18            1051      6.85%     30.82% # Reads before turning the bus around for writes
system.mem_ctrls0.rdPerTurnAround::19            1132      7.38%     38.21% # Reads before turning the bus around for writes
system.mem_ctrls0.rdPerTurnAround::20            1149      7.49%     45.70% # Reads before turning the bus around for writes
system.mem_ctrls0.rdPerTurnAround::21            1100      7.17%     52.88% # Reads before turning the bus around for writes
system.mem_ctrls0.rdPerTurnAround::22            1090      7.11%     59.99% # Reads before turning the bus around for writes
system.mem_ctrls0.rdPerTurnAround::23            1031      6.72%     66.71% # Reads before turning the bus around for writes
system.mem_ctrls0.rdPerTurnAround::24             911      5.94%     72.65% # Reads before turning the bus around for writes
system.mem_ctrls0.rdPerTurnAround::25             782      5.10%     77.75% # Reads before turning the bus around for writes
system.mem_ctrls0.rdPerTurnAround::26             693      4.52%     82.27% # Reads before turning the bus around for writes
system.mem_ctrls0.rdPerTurnAround::27             547      3.57%     85.84% # Reads before turning the bus around for writes
system.mem_ctrls0.rdPerTurnAround::28             502      3.27%     89.11% # Reads before turning the bus around for writes
system.mem_ctrls0.rdPerTurnAround::29             381      2.48%     91.60% # Reads before turning the bus around for writes
system.mem_ctrls0.rdPerTurnAround::30             333      2.17%     93.77% # Reads before turning the bus around for writes
system.mem_ctrls0.rdPerTurnAround::31             242      1.58%     95.35% # Reads before turning the bus around for writes
system.mem_ctrls0.rdPerTurnAround::32             183      1.19%     96.54% # Reads before turning the bus around for writes
system.mem_ctrls0.rdPerTurnAround::33             155      1.01%     97.55% # Reads before turning the bus around for writes
system.mem_ctrls0.rdPerTurnAround::34             109      0.71%     98.27% # Reads before turning the bus around for writes
system.mem_ctrls0.rdPerTurnAround::35              76      0.50%     98.76% # Reads before turning the bus around for writes
system.mem_ctrls0.rdPerTurnAround::36              54      0.35%     99.11% # Reads before turning the bus around for writes
system.mem_ctrls0.rdPerTurnAround::37              50      0.33%     99.44% # Reads before turning the bus around for writes
system.mem_ctrls0.rdPerTurnAround::38              29      0.19%     99.63% # Reads before turning the bus around for writes
system.mem_ctrls0.rdPerTurnAround::39              15      0.10%     99.73% # Reads before turning the bus around for writes
system.mem_ctrls0.rdPerTurnAround::40              13      0.08%     99.81% # Reads before turning the bus around for writes
system.mem_ctrls0.rdPerTurnAround::41              12      0.08%     99.89% # Reads before turning the bus around for writes
system.mem_ctrls0.rdPerTurnAround::42               5      0.03%     99.92% # Reads before turning the bus around for writes
system.mem_ctrls0.rdPerTurnAround::43               6      0.04%     99.96% # Reads before turning the bus around for writes
system.mem_ctrls0.rdPerTurnAround::44               1      0.01%     99.97% # Reads before turning the bus around for writes
system.mem_ctrls0.rdPerTurnAround::45               2      0.01%     99.98% # Reads before turning the bus around for writes
system.mem_ctrls0.rdPerTurnAround::48               1      0.01%     99.99% # Reads before turning the bus around for writes
system.mem_ctrls0.rdPerTurnAround::50               1      0.01%     99.99% # Reads before turning the bus around for writes
system.mem_ctrls0.rdPerTurnAround::54               1      0.01%    100.00% # Reads before turning the bus around for writes
system.mem_ctrls0.rdPerTurnAround::total        15332                       # Reads before turning the bus around for writes
system.mem_ctrls0.wrPerTurnAround::samples        15332                       # Writes before turning the bus around for reads
system.mem_ctrls0.wrPerTurnAround::mean     17.679168                       # Writes before turning the bus around for reads
system.mem_ctrls0.wrPerTurnAround::gmean    17.653842                       # Writes before turning the bus around for reads
system.mem_ctrls0.wrPerTurnAround::stdev     0.932278                       # Writes before turning the bus around for reads
system.mem_ctrls0.wrPerTurnAround::16            3180     20.74%     20.74% # Writes before turning the bus around for reads
system.mem_ctrls0.wrPerTurnAround::17             198      1.29%     22.03% # Writes before turning the bus around for reads
system.mem_ctrls0.wrPerTurnAround::18           10458     68.21%     90.24% # Writes before turning the bus around for reads
system.mem_ctrls0.wrPerTurnAround::19            1378      8.99%     99.23% # Writes before turning the bus around for reads
system.mem_ctrls0.wrPerTurnAround::20              97      0.63%     99.86% # Writes before turning the bus around for reads
system.mem_ctrls0.wrPerTurnAround::21              18      0.12%     99.98% # Writes before turning the bus around for reads
system.mem_ctrls0.wrPerTurnAround::22               2      0.01%     99.99% # Writes before turning the bus around for reads
system.mem_ctrls0.wrPerTurnAround::23               1      0.01%    100.00% # Writes before turning the bus around for reads
system.mem_ctrls0.wrPerTurnAround::total        15332                       # Writes before turning the bus around for reads
system.mem_ctrls0.masterReadBytes::.switch_cpus_10.inst        28096                       # Per-master bytes read from memory
system.mem_ctrls0.masterReadBytes::.switch_cpus_10.data      5280448                       # Per-master bytes read from memory
system.mem_ctrls0.masterReadBytes::.switch_cpus_11.inst        30144                       # Per-master bytes read from memory
system.mem_ctrls0.masterReadBytes::.switch_cpus_11.data      5237440                       # Per-master bytes read from memory
system.mem_ctrls0.masterReadBytes::.switch_cpus_12.inst        28800                       # Per-master bytes read from memory
system.mem_ctrls0.masterReadBytes::.switch_cpus_12.data      5255168                       # Per-master bytes read from memory
system.mem_ctrls0.masterReadBytes::.switch_cpus_13.inst        27328                       # Per-master bytes read from memory
system.mem_ctrls0.masterReadBytes::.switch_cpus_13.data      5253184                       # Per-master bytes read from memory
system.mem_ctrls0.masterWriteBytes::.writebacks     17347648                       # Per-master bytes write to memory
system.mem_ctrls0.masterReadRate::.switch_cpus_10.inst 119229.495836622562                       # Per-master bytes read from memory rate (Bytes/sec)
system.mem_ctrls0.masterReadRate::.switch_cpus_10.data 22408355.382670201361                       # Per-master bytes read from memory rate (Bytes/sec)
system.mem_ctrls0.masterReadRate::.switch_cpus_11.inst 127920.484143620110                       # Per-master bytes read from memory rate (Bytes/sec)
system.mem_ctrls0.masterReadRate::.switch_cpus_11.data 22225844.628223251551                       # Per-master bytes read from memory rate (Bytes/sec)
system.mem_ctrls0.masterReadRate::.switch_cpus_12.inst 122217.023067152972                       # Per-master bytes read from memory rate (Bytes/sec)
system.mem_ctrls0.masterReadRate::.switch_cpus_12.data 22301075.995755698532                       # Per-master bytes read from memory rate (Bytes/sec)
system.mem_ctrls0.masterReadRate::.switch_cpus_13.inst 115970.375221498485                       # Per-master bytes read from memory rate (Bytes/sec)
system.mem_ctrls0.masterReadRate::.switch_cpus_13.data 22292656.600833296776                       # Per-master bytes read from memory rate (Bytes/sec)
system.mem_ctrls0.masterWriteRate::.writebacks 73617288.047807291150                       # Per-master bytes write to memory rate (Bytes/sec)
system.mem_ctrls0.masterReadAccesses::.switch_cpus_10.inst          439                       # Per-master read serviced memory accesses
system.mem_ctrls0.masterReadAccesses::.switch_cpus_10.data        82511                       # Per-master read serviced memory accesses
system.mem_ctrls0.masterReadAccesses::.switch_cpus_11.inst          471                       # Per-master read serviced memory accesses
system.mem_ctrls0.masterReadAccesses::.switch_cpus_11.data        81840                       # Per-master read serviced memory accesses
system.mem_ctrls0.masterReadAccesses::.switch_cpus_12.inst          450                       # Per-master read serviced memory accesses
system.mem_ctrls0.masterReadAccesses::.switch_cpus_12.data        82121                       # Per-master read serviced memory accesses
system.mem_ctrls0.masterReadAccesses::.switch_cpus_13.inst          427                       # Per-master read serviced memory accesses
system.mem_ctrls0.masterReadAccesses::.switch_cpus_13.data        82083                       # Per-master read serviced memory accesses
system.mem_ctrls0.masterWriteAccesses::.writebacks       271116                       # Per-master write serviced memory accesses
system.mem_ctrls0.masterReadTotalLat::.switch_cpus_10.inst     21454143                       # Per-master read total memory access latency
system.mem_ctrls0.masterReadTotalLat::.switch_cpus_10.data   4014769273                       # Per-master read total memory access latency
system.mem_ctrls0.masterReadTotalLat::.switch_cpus_11.inst     21884160                       # Per-master read total memory access latency
system.mem_ctrls0.masterReadTotalLat::.switch_cpus_11.data   4016045583                       # Per-master read total memory access latency
system.mem_ctrls0.masterReadTotalLat::.switch_cpus_12.inst     20848170                       # Per-master read total memory access latency
system.mem_ctrls0.masterReadTotalLat::.switch_cpus_12.data   3980173422                       # Per-master read total memory access latency
system.mem_ctrls0.masterReadTotalLat::.switch_cpus_13.inst     22880250                       # Per-master read total memory access latency
system.mem_ctrls0.masterReadTotalLat::.switch_cpus_13.data   3960775727                       # Per-master read total memory access latency
system.mem_ctrls0.masterWriteTotalLat::.writebacks 13118669430814                       # Per-master write total memory access latency
system.mem_ctrls0.masterReadAvgLat::.switch_cpus_10.inst     48870.49                       # Per-master read average memory access latency
system.mem_ctrls0.masterReadAvgLat::.switch_cpus_10.data     48657.38                       # Per-master read average memory access latency
system.mem_ctrls0.masterReadAvgLat::.switch_cpus_11.inst     46463.18                       # Per-master read average memory access latency
system.mem_ctrls0.masterReadAvgLat::.switch_cpus_11.data     49071.92                       # Per-master read average memory access latency
system.mem_ctrls0.masterReadAvgLat::.switch_cpus_12.inst     46329.27                       # Per-master read average memory access latency
system.mem_ctrls0.masterReadAvgLat::.switch_cpus_12.data     48467.18                       # Per-master read average memory access latency
system.mem_ctrls0.masterReadAvgLat::.switch_cpus_13.inst     53583.72                       # Per-master read average memory access latency
system.mem_ctrls0.masterReadAvgLat::.switch_cpus_13.data     48253.30                       # Per-master read average memory access latency
system.mem_ctrls0.masterWriteAvgLat::.writebacks  48387662.22                       # Per-master write average memory access latency
system.mem_ctrls0.totQLat                 10159279808                       # Total ticks spent queuing
system.mem_ctrls0.totMemAccLat            16058830728                       # Total ticks spent from burst creation until serviced by the DRAM
system.mem_ctrls0.totBusLat                1242010720                       # Total ticks spent in databus transfers
system.mem_ctrls0.avgQLat                    30755.69                       # Average queueing delay per DRAM burst
system.mem_ctrls0.avgBusLat                   3760.00                       # Average bus latency per DRAM burst
system.mem_ctrls0.avgMemAccLat               48615.69                       # Average memory access latency per DRAM burst
system.mem_ctrls0.avgRdBW                       89.71                       # Average DRAM read bandwidth in MiByte/s
system.mem_ctrls0.avgWrBW                       73.62                       # Average achieved write bandwidth in MiByte/s
system.mem_ctrls0.avgRdBWSys                    89.72                       # Average system read bandwidth in MiByte/s
system.mem_ctrls0.avgWrBWSys                    73.63                       # Average system write bandwidth in MiByte/s
system.mem_ctrls0.peakBW                     17021.00                       # Theoretical peak bandwidth in MiByte/s
system.mem_ctrls0.busUtil                        0.96                       # Data bus utilization in percentage
system.mem_ctrls0.busUtilRead                    0.53                       # Data bus utilization in percentage for reads
system.mem_ctrls0.busUtilWrite                   0.43                       # Data bus utilization in percentage for writes
system.mem_ctrls0.avgRdQLen                      1.14                       # Average read queue length when enqueuing
system.mem_ctrls0.avgWrQLen                     56.69                       # Average write queue length when enqueuing
system.mem_ctrls0.readRowHits                    7249                       # Number of row buffer hits during reads
system.mem_ctrls0.writeRowHits                   5366                       # Number of row buffer hits during writes
system.mem_ctrls0.readRowHitRate                 2.19                       # Row buffer hit rate for reads
system.mem_ctrls0.writeRowHitRate                1.98                       # Row buffer hit rate for writes
system.mem_ctrls0.avgGap                    391816.54                       # Average gap between requests
system.mem_ctrls0.pageHitRate                    2.10                       # Row buffer hit rate, read and write combined
system.mem_ctrls0_0.actEnergy                       0                       # Energy for activate commands per rank (pJ)
system.mem_ctrls0_0.preEnergy            766450349.280028                       # Energy for precharge commands per rank (pJ)
system.mem_ctrls0_0.readEnergy           439000950.720009                       # Energy for read commands per rank (pJ)
system.mem_ctrls0_0.writeEnergy             458765496                       # Energy for write commands per rank (pJ)
system.mem_ctrls0_0.refreshEnergy        13865509961.277395                       # Energy for refresh commands per rank (pJ)
system.mem_ctrls0_0.actBackEnergy        17355048732.000526                       # Energy for active background per rank (pJ)
system.mem_ctrls0_0.preBackEnergy        500474378.879958                       # Energy for precharge background per rank (pJ)
system.mem_ctrls0_0.actPowerDownEnergy   60868925921.280029                       # Energy for active power-down per rank (pJ)
system.mem_ctrls0_0.prePowerDownEnergy   9538610520.000885                       # Energy for precharge power-down per rank (pJ)
system.mem_ctrls0_0.selfRefreshEnergy    2217356998.559999                       # Energy for self refresh per rank (pJ)
system.mem_ctrls0_0.totalEnergy          106014517849.918228                       # Total energy per rank (pJ)
system.mem_ctrls0_0.averagePower           449.888152                       # Core power per rank (mW)
system.mem_ctrls0_0.totalIdleTime        204881995513                       # Total Idle time Per DRAM Rank
system.mem_ctrls0_0.memoryStateTime::IDLE    412184420                       # Time in different power states
system.mem_ctrls0_0.memoryStateTime::REF   7640880000                       # Time in different power states
system.mem_ctrls0_0.memoryStateTime::SREF   6625017590                       # Time in different power states
system.mem_ctrls0_0.memoryStateTime::PRE_PDN  39744166348                       # Time in different power states
system.mem_ctrls0_0.memoryStateTime::ACT  22717351197                       # Time in different power states
system.mem_ctrls0_0.memoryStateTime::ACT_PDN 158512953235                       # Time in different power states
system.mem_ctrls0_1.actEnergy                       0                       # Energy for activate commands per rank (pJ)
system.mem_ctrls0_1.preEnergy            767677624.560024                       # Energy for precharge commands per rank (pJ)
system.mem_ctrls0_1.readEnergy           440342639.040005                       # Energy for read commands per rank (pJ)
system.mem_ctrls0_1.writeEnergy             458491392                       # Energy for write commands per rank (pJ)
system.mem_ctrls0_1.refreshEnergy        13867397195.517393                       # Energy for refresh commands per rank (pJ)
system.mem_ctrls0_1.actBackEnergy        17121512924.880383                       # Energy for active background per rank (pJ)
system.mem_ctrls0_1.preBackEnergy        500044204.799959                       # Energy for precharge background per rank (pJ)
system.mem_ctrls0_1.actPowerDownEnergy   61223936578.560257                       # Energy for active power-down per rank (pJ)
system.mem_ctrls0_1.prePowerDownEnergy   9419568619.200850                       # Energy for precharge power-down per rank (pJ)
system.mem_ctrls0_1.selfRefreshEnergy    2196340046.159998                       # Energy for self refresh per rank (pJ)
system.mem_ctrls0_1.totalEnergy          105998381268.477722                       # Total energy per rank (pJ)
system.mem_ctrls0_1.averagePower           449.819674                       # Core power per rank (mW)
system.mem_ctrls0_1.totalIdleTime        205282226497                       # Total Idle time Per DRAM Rank
system.mem_ctrls0_1.memoryStateTime::IDLE    406564950                       # Time in different power states
system.mem_ctrls0_1.memoryStateTime::REF   7641920000                       # Time in different power states
system.mem_ctrls0_1.memoryStateTime::SREF   6597035840                       # Time in different power states
system.mem_ctrls0_1.memoryStateTime::PRE_PDN  39248193652                       # Time in different power states
system.mem_ctrls0_1.memoryStateTime::ACT  22319721893                       # Time in different power states
system.mem_ctrls0_1.memoryStateTime::ACT_PDN 159437449465                       # Time in different power states
system.mem_ctrls1.pwrStateResidencyTicks::UNDEFINED 294291628250                       # Cumulative time (in ticks) in various power states
system.mem_ctrls1.bytes_read::.switch_cpus_10.inst        32256                       # Number of bytes read from this memory
system.mem_ctrls1.bytes_read::.switch_cpus_10.data      5245184                       # Number of bytes read from this memory
system.mem_ctrls1.bytes_read::.switch_cpus_11.inst        27328                       # Number of bytes read from this memory
system.mem_ctrls1.bytes_read::.switch_cpus_11.data      5289664                       # Number of bytes read from this memory
system.mem_ctrls1.bytes_read::.switch_cpus_12.inst        29632                       # Number of bytes read from this memory
system.mem_ctrls1.bytes_read::.switch_cpus_12.data      5261248                       # Number of bytes read from this memory
system.mem_ctrls1.bytes_read::.switch_cpus_13.inst        29952                       # Number of bytes read from this memory
system.mem_ctrls1.bytes_read::.switch_cpus_13.data      5270208                       # Number of bytes read from this memory
system.mem_ctrls1.bytes_read::total          21185472                       # Number of bytes read from this memory
system.mem_ctrls1.bytes_inst_read::.switch_cpus_10.inst        32256                       # Number of instructions bytes read from this memory
system.mem_ctrls1.bytes_inst_read::.switch_cpus_11.inst        27328                       # Number of instructions bytes read from this memory
system.mem_ctrls1.bytes_inst_read::.switch_cpus_12.inst        29632                       # Number of instructions bytes read from this memory
system.mem_ctrls1.bytes_inst_read::.switch_cpus_13.inst        29952                       # Number of instructions bytes read from this memory
system.mem_ctrls1.bytes_inst_read::total       119168                       # Number of instructions bytes read from this memory
system.mem_ctrls1.bytes_written::.writebacks     17342272                       # Number of bytes written to this memory
system.mem_ctrls1.bytes_written::total       17342272                       # Number of bytes written to this memory
system.mem_ctrls1.num_reads::.switch_cpus_10.inst          504                       # Number of read requests responded to by this memory
system.mem_ctrls1.num_reads::.switch_cpus_10.data        81956                       # Number of read requests responded to by this memory
system.mem_ctrls1.num_reads::.switch_cpus_11.inst          427                       # Number of read requests responded to by this memory
system.mem_ctrls1.num_reads::.switch_cpus_11.data        82651                       # Number of read requests responded to by this memory
system.mem_ctrls1.num_reads::.switch_cpus_12.inst          463                       # Number of read requests responded to by this memory
system.mem_ctrls1.num_reads::.switch_cpus_12.data        82207                       # Number of read requests responded to by this memory
system.mem_ctrls1.num_reads::.switch_cpus_13.inst          468                       # Number of read requests responded to by this memory
system.mem_ctrls1.num_reads::.switch_cpus_13.data        82347                       # Number of read requests responded to by this memory
system.mem_ctrls1.num_reads::total             331023                       # Number of read requests responded to by this memory
system.mem_ctrls1.num_writes::.writebacks       270973                       # Number of write requests responded to by this memory
system.mem_ctrls1.num_writes::total            270973                       # Number of write requests responded to by this memory
system.mem_ctrls1.bw_read::.switch_cpus_10.inst       136883                       # Total read bandwidth from this memory (bytes/s)
system.mem_ctrls1.bw_read::.switch_cpus_10.data     22258707                       # Total read bandwidth from this memory (bytes/s)
system.mem_ctrls1.bw_read::.switch_cpus_11.inst       115970                       # Total read bandwidth from this memory (bytes/s)
system.mem_ctrls1.bw_read::.switch_cpus_11.data     22447465                       # Total read bandwidth from this memory (bytes/s)
system.mem_ctrls1.bw_read::.switch_cpus_12.inst       125748                       # Total read bandwidth from this memory (bytes/s)
system.mem_ctrls1.bw_read::.switch_cpus_12.data     22326877                       # Total read bandwidth from this memory (bytes/s)
system.mem_ctrls1.bw_read::.switch_cpus_13.inst       127106                       # Total read bandwidth from this memory (bytes/s)
system.mem_ctrls1.bw_read::.switch_cpus_13.data     22364900                       # Total read bandwidth from this memory (bytes/s)
system.mem_ctrls1.bw_read::total             89903657                       # Total read bandwidth from this memory (bytes/s)
system.mem_ctrls1.bw_inst_read::.switch_cpus_10.inst       136883                       # Instruction read bandwidth from this memory (bytes/s)
system.mem_ctrls1.bw_inst_read::.switch_cpus_11.inst       115970                       # Instruction read bandwidth from this memory (bytes/s)
system.mem_ctrls1.bw_inst_read::.switch_cpus_12.inst       125748                       # Instruction read bandwidth from this memory (bytes/s)
system.mem_ctrls1.bw_inst_read::.switch_cpus_13.inst       127106                       # Instruction read bandwidth from this memory (bytes/s)
system.mem_ctrls1.bw_inst_read::total          505707                       # Instruction read bandwidth from this memory (bytes/s)
system.mem_ctrls1.bw_write::.writebacks      73594474                       # Write bandwidth from this memory (bytes/s)
system.mem_ctrls1.bw_write::total            73594474                       # Write bandwidth from this memory (bytes/s)
system.mem_ctrls1.bw_total::.writebacks      73594474                       # Total bandwidth to/from this memory (bytes/s)
system.mem_ctrls1.bw_total::.switch_cpus_10.inst       136883                       # Total bandwidth to/from this memory (bytes/s)
system.mem_ctrls1.bw_total::.switch_cpus_10.data     22258707                       # Total bandwidth to/from this memory (bytes/s)
system.mem_ctrls1.bw_total::.switch_cpus_11.inst       115970                       # Total bandwidth to/from this memory (bytes/s)
system.mem_ctrls1.bw_total::.switch_cpus_11.data     22447465                       # Total bandwidth to/from this memory (bytes/s)
system.mem_ctrls1.bw_total::.switch_cpus_12.inst       125748                       # Total bandwidth to/from this memory (bytes/s)
system.mem_ctrls1.bw_total::.switch_cpus_12.data     22326877                       # Total bandwidth to/from this memory (bytes/s)
system.mem_ctrls1.bw_total::.switch_cpus_13.inst       127106                       # Total bandwidth to/from this memory (bytes/s)
system.mem_ctrls1.bw_total::.switch_cpus_13.data     22364900                       # Total bandwidth to/from this memory (bytes/s)
system.mem_ctrls1.bw_total::total           163498131                       # Total bandwidth to/from this memory (bytes/s)
system.mem_ctrls1.avgPriority_.writebacks::samples    270973.00                       # Average QoS priority value for accepted requests
system.mem_ctrls1.avgPriority_.switch_cpus_10.inst::samples       504.00                       # Average QoS priority value for accepted requests
system.mem_ctrls1.avgPriority_.switch_cpus_10.data::samples     81950.00                       # Average QoS priority value for accepted requests
system.mem_ctrls1.avgPriority_.switch_cpus_11.inst::samples       427.00                       # Average QoS priority value for accepted requests
system.mem_ctrls1.avgPriority_.switch_cpus_11.data::samples     82644.00                       # Average QoS priority value for accepted requests
system.mem_ctrls1.avgPriority_.switch_cpus_12.inst::samples       463.00                       # Average QoS priority value for accepted requests
system.mem_ctrls1.avgPriority_.switch_cpus_12.data::samples     82199.00                       # Average QoS priority value for accepted requests
system.mem_ctrls1.avgPriority_.switch_cpus_13.inst::samples       468.00                       # Average QoS priority value for accepted requests
system.mem_ctrls1.avgPriority_.switch_cpus_13.data::samples     82343.00                       # Average QoS priority value for accepted requests
system.mem_ctrls1.priorityMinLatency     0.000000017860                       # per QoS priority minimum request to response latency (s)
system.mem_ctrls1.priorityMaxLatency     0.001466313680                       # per QoS priority maximum request to response latency (s)
system.mem_ctrls1.numReadWriteTurnArounds        15325                       # Number of turnarounds from READ to WRITE
system.mem_ctrls1.numWriteReadTurnArounds        15325                       # Number of turnarounds from WRITE to READ
system.mem_ctrls1.numStayReadState             979809                       # Number of times bus staying in READ state
system.mem_ctrls1.numStayWriteState            255635                       # Number of times bus staying in WRITE state
system.mem_ctrls1.readReqs                     331023                       # Number of read requests accepted
system.mem_ctrls1.writeReqs                    270973                       # Number of write requests accepted
system.mem_ctrls1.readBursts                   331023                       # Number of DRAM read bursts, including those serviced by the write queue
system.mem_ctrls1.writeBursts                  270973                       # Number of DRAM write bursts, including those merged in the write queue
system.mem_ctrls1.bytesReadDRAM              21183872                       # Total number of bytes read from DRAM
system.mem_ctrls1.bytesReadWrQ                   1600                       # Total number of bytes read from write queue
system.mem_ctrls1.bytesWritten               17339200                       # Total number of bytes written to DRAM
system.mem_ctrls1.bytesReadSys               21185472                       # Total read bytes from the system interface side
system.mem_ctrls1.bytesWrittenSys            17342272                       # Total written bytes from the system interface side
system.mem_ctrls1.servicedByWrQ                    25                       # Number of DRAM read bursts serviced by the write queue
system.mem_ctrls1.mergedWrBursts                    0                       # Number of DRAM write bursts merged with an existing one
system.mem_ctrls1.neitherReadNorWriteReqs            0                       # Number of requests that are neither read nor write
system.mem_ctrls1.perBankRdBursts::0            10337                       # Per bank write bursts
system.mem_ctrls1.perBankRdBursts::1            10364                       # Per bank write bursts
system.mem_ctrls1.perBankRdBursts::2            10451                       # Per bank write bursts
system.mem_ctrls1.perBankRdBursts::3            10420                       # Per bank write bursts
system.mem_ctrls1.perBankRdBursts::4            10456                       # Per bank write bursts
system.mem_ctrls1.perBankRdBursts::5            10197                       # Per bank write bursts
system.mem_ctrls1.perBankRdBursts::6            10156                       # Per bank write bursts
system.mem_ctrls1.perBankRdBursts::7            10300                       # Per bank write bursts
system.mem_ctrls1.perBankRdBursts::8            10338                       # Per bank write bursts
system.mem_ctrls1.perBankRdBursts::9            10259                       # Per bank write bursts
system.mem_ctrls1.perBankRdBursts::10           10312                       # Per bank write bursts
system.mem_ctrls1.perBankRdBursts::11           10149                       # Per bank write bursts
system.mem_ctrls1.perBankRdBursts::12           10335                       # Per bank write bursts
system.mem_ctrls1.perBankRdBursts::13           10315                       # Per bank write bursts
system.mem_ctrls1.perBankRdBursts::14           10152                       # Per bank write bursts
system.mem_ctrls1.perBankRdBursts::15           10323                       # Per bank write bursts
[...]
system.switch_cpus_13.iew.predictedTakenIncorrect     11567864                       # Number of branches that were predicted taken incorrectly
system.switch_cpus_13.iew.predictedNotTakenIncorrect     43508077                       # Number of branches that were predicted not taken incorrectly
system.switch_cpus_13.iew.branchMispredicts     55075941                       # Number of branch mispredicts detected at execute
system.switch_cpus_13.iew.iewExecutedInsts   1498014877                       # Number of executed instructions
system.switch_cpus_13.iew.iewExecLoadInsts    187706810                       # Number of load instructions executed
system.switch_cpus_13.iew.iewExecSquashedInsts     72758365                       # Number of squashed instructions skipped in execute
system.switch_cpus_13.iew.exec_swp                  0                       # number of swp insts executed
system.switch_cpus_13.iew.exec_nop                  0                       # number of nop insts executed
system.switch_cpus_13.iew.exec_refs         250921874                       # number of memory reference insts executed
system.switch_cpus_13.iew.exec_branches     158178564                       # Number of branches executed
system.switch_cpus_13.iew.exec_stores        63215064                       # Number of stores executed
system.switch_cpus_13.iew.exec_rate          1.589261                       # Inst execution rate
system.switch_cpus_13.iew.wb_sent          1463089849                       # cumulative count of insts sent to commit
system.switch_cpus_13.iew.wb_count         1456235998                       # cumulative count of insts written-back
system.switch_cpus_13.iew.wb_producers     1115591443                       # num instructions producing a value
system.switch_cpus_13.iew.wb_consumers     1550570613                       # num instructions consuming a value
system.switch_cpus_13.iew.wb_rate            1.544938                       # insts written-back per cycle
system.switch_cpus_13.iew.wb_fanout          0.719472                       # average fanout of values written-back
system.switch_cpus_13.commit.commitSquashedInsts    866825275                       # The number of squashed insts skipped by commit
system.switch_cpus_13.commit.commitNonSpecStalls           93                       # The number of times commit has been forced to stall to communicate backwards
system.switch_cpus_13.commit.branchMispredicts     43249067                       # The number of times a branch was mispredicted
system.switch_cpus_13.commit.committed_per_cycle::samples    800509888                       # Number of insts commited each cycle
system.switch_cpus_13.commit.committed_per_cycle::mean     1.179480                       # Number of insts commited each cycle
system.switch_cpus_13.commit.committed_per_cycle::stdev     2.171463                       # Number of insts commited each cycle
system.switch_cpus_13.commit.committed_per_cycle::underflows            0      0.00%      0.00% # Number of insts commited each cycle
system.switch_cpus_13.commit.committed_per_cycle::0    513740843     64.18%     64.18% # Number of insts commited each cycle
system.switch_cpus_13.commit.committed_per_cycle::1    100013695     12.49%     76.67% # Number of insts commited each cycle
system.switch_cpus_13.commit.committed_per_cycle::2     40700985      5.08%     81.75% # Number of insts commited each cycle
system.switch_cpus_13.commit.committed_per_cycle::3     48556123      6.07%     87.82% # Number of insts commited each cycle
system.switch_cpus_13.commit.committed_per_cycle::4     24349236      3.04%     90.86% # Number of insts commited each cycle
system.switch_cpus_13.commit.committed_per_cycle::5     13575430      1.70%     92.56% # Number of insts commited each cycle
system.switch_cpus_13.commit.committed_per_cycle::6      9082697      1.13%     93.69% # Number of insts commited each cycle
system.switch_cpus_13.commit.committed_per_cycle::7      6595687      0.82%     94.52% # Number of insts commited each cycle
system.switch_cpus_13.commit.committed_per_cycle::8     43895192      5.48%    100.00% # Number of insts commited each cycle
system.switch_cpus_13.commit.committed_per_cycle::overflows            0      0.00%    100.00% # Number of insts commited each cycle
system.switch_cpus_13.commit.committed_per_cycle::min_value            0                       # Number of insts commited each cycle
system.switch_cpus_13.commit.committed_per_cycle::max_value            8                       # Number of insts commited each cycle
system.switch_cpus_13.commit.committed_per_cycle::total    800509888                       # Number of insts commited each cycle
system.switch_cpus_13.commit.committedInsts    499980670                       # Number of instructions committed
system.switch_cpus_13.commit.committedOps    944185655                       # Number of ops (including micro ops) committed
system.switch_cpus_13.commit.swp_count              0                       # Number of s/w prefetches committed
system.switch_cpus_13.commit.refs           167942791                       # Number of memory references committed
system.switch_cpus_13.commit.loads          120672211                       # Number of loads committed
system.switch_cpus_13.commit.membars                0                       # Number of memory barriers committed
system.switch_cpus_13.commit.branches       114514845                       # Number of branches committed
system.switch_cpus_13.commit.vec_insts              0                       # Number of committed Vector instructions.
system.switch_cpus_13.commit.fp_insts           34180                       # Number of committed floating point instructions.
system.switch_cpus_13.commit.int_insts      940847151                       # Number of committed integer instructions.
system.switch_cpus_13.commit.function_calls      4841824                       # Number of function calls committed.
system.switch_cpus_13.commit.op_class_0::No_OpClass      3163201      0.34%      0.34% # Class of committed instruction
system.switch_cpus_13.commit.op_class_0::IntAlu    770587250     81.61%     81.95% # Class of committed instruction
system.switch_cpus_13.commit.op_class_0::IntMult        99066      0.01%     81.96% # Class of committed instruction
system.switch_cpus_13.commit.op_class_0::IntDiv      2368738      0.25%     82.21% # Class of committed instruction
system.switch_cpus_13.commit.op_class_0::FloatAdd          680      0.00%     82.21% # Class of committed instruction
system.switch_cpus_13.commit.op_class_0::FloatCmp            0      0.00%     82.21% # Class of committed instruction
system.switch_cpus_13.commit.op_class_0::FloatCvt            0      0.00%     82.21% # Class of committed instruction
system.switch_cpus_13.commit.op_class_0::FloatMult            0      0.00%     82.21% # Class of committed instruction
system.switch_cpus_13.commit.op_class_0::FloatMultAcc            0      0.00%     82.21% # Class of committed instruction
system.switch_cpus_13.commit.op_class_0::FloatDiv            0      0.00%     82.21% # Class of committed instruction
system.switch_cpus_13.commit.op_class_0::FloatMisc            0      0.00%     82.21% # Class of committed instruction
system.switch_cpus_13.commit.op_class_0::FloatSqrt            0      0.00%     82.21% # Class of committed instruction
system.switch_cpus_13.commit.op_class_0::SimdAdd            0      0.00%     82.21% # Class of committed instruction
system.switch_cpus_13.commit.op_class_0::SimdAddAcc            0      0.00%     82.21% # Class of committed instruction
system.switch_cpus_13.commit.op_class_0::SimdAlu         5942      0.00%     82.21% # Class of committed instruction
system.switch_cpus_13.commit.op_class_0::SimdCmp            0      0.00%     82.21% # Class of committed instruction
system.switch_cpus_13.commit.op_class_0::SimdCvt         8816      0.00%     82.21% # Class of committed instruction
system.switch_cpus_13.commit.op_class_0::SimdMisc         9151      0.00%     82.21% # Class of committed instruction
system.switch_cpus_13.commit.op_class_0::SimdMult            0      0.00%     82.21% # Class of committed instruction
system.switch_cpus_13.commit.op_class_0::SimdMultAcc            0      0.00%     82.21% # Class of committed instruction
system.switch_cpus_13.commit.op_class_0::SimdShift            0      0.00%     82.21% # Class of committed instruction
system.switch_cpus_13.commit.op_class_0::SimdShiftAcc            0      0.00%     82.21% # Class of committed instruction
system.switch_cpus_13.commit.op_class_0::SimdSqrt            0      0.00%     82.21% # Class of committed instruction
system.switch_cpus_13.commit.op_class_0::SimdFloatAdd            0      0.00%     82.21% # Class of committed instruction
system.switch_cpus_13.commit.op_class_0::SimdFloatAlu            0      0.00%     82.21% # Class of committed instruction
system.switch_cpus_13.commit.op_class_0::SimdFloatCmp            0      0.00%     82.21% # Class of committed instruction
system.switch_cpus_13.commit.op_class_0::SimdFloatCvt           14      0.00%     82.21% # Class of committed instruction
system.switch_cpus_13.commit.op_class_0::SimdFloatDiv            3      0.00%     82.21% # Class of committed instruction
system.switch_cpus_13.commit.op_class_0::SimdFloatMisc            0      0.00%     82.21% # Class of committed instruction
system.switch_cpus_13.commit.op_class_0::SimdFloatMult            3      0.00%     82.21% # Class of committed instruction
system.switch_cpus_13.commit.op_class_0::SimdFloatMultAcc            0      0.00%     82.21% # Class of committed instruction
system.switch_cpus_13.commit.op_class_0::SimdFloatSqrt            0      0.00%     82.21% # Class of committed instruction
system.switch_cpus_13.commit.op_class_0::SimdAes            0      0.00%     82.21% # Class of committed instruction
system.switch_cpus_13.commit.op_class_0::SimdAesMix            0      0.00%     82.21% # Class of committed instruction
system.switch_cpus_13.commit.op_class_0::SimdSha1Hash            0      0.00%     82.21% # Class of committed instruction
system.switch_cpus_13.commit.op_class_0::SimdSha1Hash2            0      0.00%     82.21% # Class of committed instruction
system.switch_cpus_13.commit.op_class_0::SimdSha256Hash            0      0.00%     82.21% # Class of committed instruction
system.switch_cpus_13.commit.op_class_0::SimdSha256Hash2            0      0.00%     82.21% # Class of committed instruction
system.switch_cpus_13.commit.op_class_0::SimdShaSigma2            0      0.00%     82.21% # Class of committed instruction
system.switch_cpus_13.commit.op_class_0::SimdShaSigma3            0      0.00%     82.21% # Class of committed instruction
system.switch_cpus_13.commit.op_class_0::MemRead    120667709     12.78%     94.99% # Class of committed instruction
system.switch_cpus_13.commit.op_class_0::MemWrite     47270569      5.01%    100.00% # Class of committed instruction
system.switch_cpus_13.commit.op_class_0::FloatMemRead         4502      0.00%    100.00% # Class of committed instruction
system.switch_cpus_13.commit.op_class_0::FloatMemWrite           11      0.00%    100.00% # Class of committed instruction
system.switch_cpus_13.commit.op_class_0::IprAccess            0      0.00%    100.00% # Class of committed instruction
system.switch_cpus_13.commit.op_class_0::InstPrefetch            0      0.00%    100.00% # Class of committed instruction
system.switch_cpus_13.commit.op_class_0::total    944185655                       # Class of committed instruction
system.switch_cpus_13.commit.bw_lim_events     43895192                       # number cycles where commit BW limit reached
system.switch_cpus_13.rob.rob_reads        2567625626                       # The number of ROB reads
system.switch_cpus_13.rob.rob_writes       3765887920                       # The number of ROB writes
system.switch_cpus_13.timesIdled                33162                       # Number of times that the entire CPU went into an idle state and unscheduled itself
system.switch_cpus_13.idleCycles               386730                       # Total number of cycles that the CPU has spent unscheduled due to idling
system.switch_cpus_13.committedInsts        499980670                       # Number of Instructions Simulated
system.switch_cpus_13.committedOps          944185655                       # Number of Ops (including micro ops) Simulated
system.switch_cpus_13.cpi                    1.885244                       # CPI: Cycles Per Instruction
system.switch_cpus_13.cpi_total              1.885244                       # CPI: Total CPI of All Threads
system.switch_cpus_13.ipc                    0.530435                       # IPC: Instructions Per Cycle
system.switch_cpus_13.ipc_total              0.530435                       # IPC: Total IPC of All Threads
system.switch_cpus_13.int_regfile_reads    1767777709                       # number of integer regfile reads
system.switch_cpus_13.int_regfile_writes   1229091026                       # number of integer regfile writes
system.switch_cpus_13.fp_regfile_reads          65024                       # number of floating regfile reads
system.switch_cpus_13.fp_regfile_writes         30624                       # number of floating regfile writes
system.switch_cpus_13.cc_regfile_reads      726169382                       # number of cc regfile reads
system.switch_cpus_13.cc_regfile_writes     498427539                       # number of cc regfile writes
system.switch_cpus_13.misc_regfile_reads    649966184                       # number of misc regfile reads
system.switch_cpus_13.misc_regfile_writes           88                       # number of misc regfile writes
system.tol3bus.snoop_filter.tot_requests      1877718                       # Total number of requests made to the snoop filter.
system.tol3bus.snoop_filter.hit_single_requests       939132                       # Number of requests hitting in the snoop filter with a single holder of the requested data.
system.tol3bus.snoop_filter.hit_multi_requests            0                       # Number of requests hitting in the snoop filter with multiple (>1) holders of the requested data.
system.tol3bus.snoop_filter.tot_snoops           6100                       # Total number of snoops made to the snoop filter.
system.tol3bus.snoop_filter.hit_single_snoops         6100                       # Number of snoops hitting in the snoop filter with a single holder of the requested data.
system.tol3bus.snoop_filter.hit_multi_snoops            0                       # Number of snoops hitting in the snoop filter with multiple (>1) holders of the requested data.
system.tol3bus.pwrStateResidencyTicks::UNDEFINED 294291628250                       # Cumulative time (in ticks) in various power states
system.tol3bus.trans_dist::ReadResp            840513                       # Transaction distribution
system.tol3bus.trans_dist::WritebackDirty      1245422                       # Transaction distribution
system.tol3bus.trans_dist::CleanEvict          356579                       # Transaction distribution
system.tol3bus.trans_dist::UpgradeReq             118                       # Transaction distribution
system.tol3bus.trans_dist::UpgradeResp            118                       # Transaction distribution
system.tol3bus.trans_dist::ReadExReq            98075                       # Transaction distribution
system.tol3bus.trans_dist::ReadExResp           98075                       # Transaction distribution
system.tol3bus.trans_dist::ReadSharedReq       840513                       # Transaction distribution
system.tol3bus.pkt_count_system.cpu0.l2cache.mem_side::system.l3.cpu_side       684869                       # Packet count per connected master and slave (bytes)
system.tol3bus.pkt_count_system.cpu1.l2cache.mem_side::system.l3.cpu_side       721562                       # Packet count per connected master and slave (bytes)
system.tol3bus.pkt_count_system.cpu2.l2cache.mem_side::system.l3.cpu_side       702163                       # Packet count per connected master and slave (bytes)
system.tol3bus.pkt_count_system.cpu3.l2cache.mem_side::system.l3.cpu_side       707830                       # Packet count per connected master and slave (bytes)
system.tol3bus.pkt_count::total               2816424                       # Packet count per connected master and slave (bytes)
system.tol3bus.pkt_size_system.cpu0.l2cache.mem_side::system.l3.cpu_side     25621184                       # Cumulative packet size per connected master and slave (bytes)
system.tol3bus.pkt_size_system.cpu1.l2cache.mem_side::system.l3.cpu_side     26852224                       # Cumulative packet size per connected master and slave (bytes)
system.tol3bus.pkt_size_system.cpu2.l2cache.mem_side::system.l3.cpu_side     26209920                       # Cumulative packet size per connected master and slave (bytes)
system.tol3bus.pkt_size_system.cpu3.l2cache.mem_side::system.l3.cpu_side     26399616                       # Cumulative packet size per connected master and slave (bytes)
system.tol3bus.pkt_size::total              105082944                       # Cumulative packet size per connected master and slave (bytes)
system.tol3bus.snoops                          662989                       # Total snoops (count)
system.tol3bus.snoopTraffic                  34693696                       # Total snoop traffic (bytes)
system.tol3bus.snoop_fanout::samples          1601695                       # Request fanout histogram
system.tol3bus.snoop_fanout::mean            0.003808                       # Request fanout histogram
system.tol3bus.snoop_fanout::stdev           0.061595                       # Request fanout histogram
system.tol3bus.snoop_fanout::underflows             0      0.00%      0.00% # Request fanout histogram
system.tol3bus.snoop_fanout::0                1595595     99.62%     99.62% # Request fanout histogram
system.tol3bus.snoop_fanout::1                   6100      0.38%    100.00% # Request fanout histogram
system.tol3bus.snoop_fanout::2                      0      0.00%    100.00% # Request fanout histogram
system.tol3bus.snoop_fanout::3                      0      0.00%    100.00% # Request fanout histogram
system.tol3bus.snoop_fanout::4                      0      0.00%    100.00% # Request fanout histogram
system.tol3bus.snoop_fanout::overflows              0      0.00%    100.00% # Request fanout histogram
system.tol3bus.snoop_fanout::min_value              0                       # Request fanout histogram
system.tol3bus.snoop_fanout::max_value              1                       # Request fanout histogram
system.tol3bus.snoop_fanout::total            1601695                       # Request fanout histogram
system.tol3bus.reqLayer0.occupancy          821096000                       # Layer occupancy (ticks)
system.tol3bus.reqLayer0.utilization              0.3                       # Layer utilization (%)
system.tol3bus.respLayer0.occupancy         171213205                       # Layer occupancy (ticks)
system.tol3bus.respLayer0.utilization             0.1                       # Layer utilization (%)
system.tol3bus.respLayer1.occupancy         180331958                       # Layer occupancy (ticks)
system.tol3bus.respLayer1.utilization             0.1                       # Layer utilization (%)
system.tol3bus.respLayer2.occupancy         175540948                       # Layer occupancy (ticks)
system.tol3bus.respLayer2.utilization             0.1                       # Layer utilization (%)
system.tol3bus.respLayer3.occupancy         176929956                       # Layer occupancy (ticks)
system.tol3bus.respLayer3.utilization             0.1                       # Layer utilization (%)

---------- End Simulation Statistics   ----------
